version 2
run General-0-20190423-12:51:28-14244
attr configname General
attr datetime 20190423-12:51:28
attr experiment General
attr inifile omnetpp.ini
attr iterationvars ""
attr iterationvarsf ""
attr measurement ""
attr network Exercise2
attr processid 14244
attr repetition 0
attr replication #0
attr resultdir results
attr runnumber 0
attr seedset 0
param Exercise2.S.delayTime "truncnormal(3s, 1s)"

vector 0 Exercise2.R "" ETV
0	2	0.1	0.1
0	3	0.100015652739	1.5652739000005e-005
0	5	0.363091229025	0.263075576286
0	7	1.874301873415	1.51121064439
0	9	2.791602137262	0.917300263847
0	11	3.857136612086	1.065534474824
0	14	4.295054984742	0.437918372656
0	15	4.389144217171	0.094089232429
0	17	5.746873650908	1.357729433737
0	19	7.105466462581	1.358592811673
0	21	8.974852254463	1.869385791882
0	23	9.741856409443	0.76700415498
0	25	10.780689153579	1.038832744136
0	28	12.442619845804	1.661930692225
0	29	12.511764066859	0.069144221055
0	31	12.618687336948	0.106923270089
0	33	13.678087723618	1.05940038667
0	36	15.020386491772	1.342298768154
0	37	15.035782864194	0.015396372422
0	39	15.802614165704	0.76683130151
0	41	15.936298640741	0.133684475037
0	43	16.771270589657	0.834971948916
0	45	18.144816014378	1.373545424721
0	47	19.322769300092	1.177953285714
0	49	21.183642289548	1.860872989456
0	51	22.875976070565	1.692333781017
0	53	23.929833625737	1.053857555172
0	55	24.113763407252	0.183929781515
0	57	25.42160133185	1.307837924598
0	59	26.253600045552	0.831998713702
0	61	27.655981234441	1.402381188889
0	63	29.47662289542	1.820641660979
0	65	31.001018974791	1.524396079371
0	68	31.525924962119	0.524905987328
0	69	31.620853989534	0.094929027414999
0	71	33.093017758705	1.472163769171
0	73	33.749486210965	0.65646845225999
0	75	35.01476334674	1.265277135775
0	77	36.527584318643	1.512820971903
0	79	38.509659089711	1.982074771068
0	81	39.240336431162	0.730677341451
0	83	39.734414202363	0.494077771201
0	85	41.699514774791	1.965100572428
0	87	43.144835576342	1.445320801551
0	89	44.65154724631	1.506711669968
0	91	45.954584395817	1.303037149507
0	93	46.099956161714	0.145371765897
0	95	47.363225597917	1.263269436203
0	97	49.132639855068	1.769414257151
0	99	49.678059788596	0.545419933528
0	101	50.550882599898	0.87282281130199
0	103	52.08387215565	1.532989555752
0	105	53.039335685659	0.955463530009
0	107	53.514884553017	0.475548867358
0	109	54.064698233624	0.549813680607
0	111	54.783228192237	0.718529958613
0	113	55.116242593068	0.333014400831
0	115	56.089277359092	0.973034766024
0	117	57.884589932199	1.795312573107
0	119	59.703006135487	1.818416203288
0	121	59.824134790582	0.121128655095
0	123	61.633440975254	1.809306184672
0	125	62.642486764742	1.009045789488
0	127	63.675070692027	1.032583927285
0	129	64.313136574351	0.63806588232399
0	131	66.286420798387	1.973284224036
0	133	67.274374168353	0.98795336996599
0	135	67.806663182799	0.53228901444601
0	137	67.988128972559	0.18146578976
0	139	69.883657472479	1.89552849992
0	141	70.031155622904	0.14749815042499
0	143	71.032569812485	1.001414189581
0	145	71.800854108528	0.76828429604301
0	147	72.355017709104	0.554163600576
0	149	74.182652593068	1.827634883964
0	151	75.242147380457	1.059494787389
0	153	76.171039030359	0.928891649902
0	155	78.052998938015	1.881959907656
0	157	78.153166905441	0.100167967426
0	159	79.676195429811	1.52302852437
0	161	81.21660452332	1.540409093509
0	163	82.872239123829	1.655634600509
0	166	83.122969875028	0.250730751199
0	167	83.154705277575	0.031735402547
0	169	84.531615879959	1.376910602384
0	171	86.26811014347	1.736494263511
0	173	87.527196979254	1.259086835784
0	175	88.999646007873	1.472449028619
0	177	90.450470004765	1.450823996892
0	179	92.449385762748	1.998915757983
0	181	94.226530190055	1.777144427307
0	183	94.692919946922	0.466389756867
0	185	95.305563609116	0.61264366219399
0	187	96.007594105183	0.70203049606701
0	189	97.034141509667	1.026547404484
0	191	98.216368674724	1.182227165057
0	193	99.908331794944	1.69196312022
0	195	100.732493336045	0.82416154110099
0	197	102.415514614949	1.683021278904
0	199	102.954149159438	0.538634544489
0	201	103.784938390589	0.83078923115099
0	203	104.859546341725	1.074607951136
0	205	105.795381078724	0.935834736999
0	207	106.369805821713	0.57442474298901
0	209	106.726461229576	0.356655407863
0	211	107.033901183739	0.307439954163
0	213	108.177210805412	1.143309621673
0	216	109.78202225942	1.604811454008
0	217	109.848129768177	0.066107508757
0	219	110.917029450466	1.068899682289
0	221	111.913989688553	0.996960238087
0	223	113.824711208473	1.91072151992
0	225	115.321296510293	1.49658530182
0	227	116.430464206786	1.109167696493
0	229	118.211939169515	1.781474962729
0	231	119.461637752202	1.249698582687
0	233	121.14571697723	1.684079225028
0	235	121.465252022332	0.319535045102
0	237	121.890755052018	0.425503029686
0	239	123.320174987433	1.429419935415
0	241	123.581029511183	0.26085452375001
0	243	123.763010184491	0.18198067330799
0	246	124.312186480035	0.549176295544
0	247	124.318185681947	0.0059992019120045
0	250	125.146772208548	0.828586526601
0	251	125.200524790162	0.053752581613992
0	253	126.620163975894	1.419639185732
0	255	128.495958574669	1.875794598775
0	257	128.975780184226	0.47982160955701
0	259	129.337572001866	0.36179181763998
0	261	129.97265107495	0.635079073084
0	263	131.746632399242	1.773981324292
0	265	133.050749771177	1.304117371935
0	267	133.351419890319	0.30067011914198
0	269	134.714112317844	1.362692427525
0	271	135.485741725274	0.77162940743003
0	273	136.261192399521	0.775450674247
0	275	137.260674464494	0.99948206497299
0	277	137.555740471113	0.29506600661898
0	279	138.730113717458	1.174373246345
0	281	140.421265036386	1.691151318928
0	283	141.601482256452	1.180217220066
0	285	143.512299909351	1.910817652899
0	287	144.624592186564	1.112292277213
0	289	144.920895310869	0.29630312430498
0	291	146.887505505037	1.966610194168
0	293	147.705038892289	0.81753338725201
0	295	147.98867843518	0.283639542891
0	297	149.118475796566	1.129797361386
0	299	149.622728609626	0.50425281305999
0	301	150.599757708279	0.97702909865299
0	303	151.527818765593	0.92806105731401
0	305	153.450009047119	1.922190281526
0	307	153.702070659209	0.25206161208999
0	309	154.101585057933	0.39951439872399
0	311	154.740084405723	0.63849934779
0	313	155.998622718588	1.258538312865
0	315	156.252047036282	0.253424317694
0	317	157.554554519358	1.302507483076
0	319	158.797822571122	1.243268051764
0	321	160.403968562882	1.60614599176
0	323	160.899652079489	0.49568351660699
0	325	161.852515685626	0.95286360613702
0	327	162.631144025048	0.778628339422
0	330	163.037644694434	0.40650066938599
0	331	163.094395057199	0.056750362765001
0	333	164.897742055166	1.803346997967
0	335	165.750736881254	0.85299482608801
0	337	166.034778945487	0.28404206423301
0	339	167.929752505674	1.894973560187
0	341	168.750378576779	0.82062607110498
0	343	169.012755639714	0.262377062935
0	345	170.78405238198	1.771296742266
0	347	170.968399641878	0.184347259898
0	349	171.29279674589	0.32439710401201
0	351	171.434923876137	0.14212713024699
0	353	172.165601933775	0.73067805763802
0	355	172.671716660897	0.506114727122
0	357	172.941935397515	0.27021873661801
0	359	174.508241735027	1.566306337512
0	361	175.41885630326	0.910614568233
0	363	176.117904592683	0.69904828942302
0	365	177.022504931183	0.90460033849999
0	367	178.640394105265	1.617889174082
0	369	180.50374290589	1.863348800625
0	371	181.807035016128	1.303292110238
0	373	182.237531784423	0.430496768295
0	375	183.596716519579	1.359184735156
0	377	185.414560290102	1.817843770523
0	379	185.914811478278	0.50025118817598
0	381	187.636531150121	1.721719671843
0	383	188.579055807213	0.94252465709201
0	385	189.590967557524	1.011911750311
0	387	190.791755034347	1.200787476823
0	389	192.426878000198	1.635122965851
0	391	193.938565064514	1.511687064316
0	393	194.863055023156	0.924489958642
0	395	196.765789923935	1.902734900779
0	397	198.031267323866	1.265477399931
0	399	198.909927964954	0.878660641088
0	401	200.559322738669	1.649394773715
0	403	201.93728456489	1.377961826221
0	405	203.341697862385	1.404413297495
0	407	205.315988861957	1.974290999572
0	409	207.224818667356	1.908829805399
0	411	208.927358004085	1.702539336729
0	413	209.505990410314	0.57863240622899
0	415	210.58084189299	1.074851482676
0	417	211.609711225283	1.028869332293
0	419	211.816579081353	0.20686785606998
0	421	212.644636047693	0.82805696634
0	423	213.798069327364	1.153433279671
0	425	215.551200765296	1.753131437932
0	427	216.431278083994	0.880077318698
0	429	217.890773444705	1.459495360711
0	431	219.629300920439	1.738527475734
0	433	221.060585589961	1.431284669522
0	435	222.662026243912	1.601440653951
0	437	224.075097192433	1.413070948521
0	440	225.558528987804	1.483431795371
0	441	225.596713795458	0.038184807654005
0	443	227.368776029932	1.772062234474
0	445	228.418750840753	1.049974810821
0	447	229.345396309174	0.92664546842099
0	449	229.475784055032	0.130387745858
0	451	230.902628696331	1.426844641299
0	453	231.880515015016	0.97788631868499
0	455	233.215873145452	1.335358130436
0	457	234.579971384846	1.364098239394
0	459	234.979080878973	0.399109494127
0	461	236.812348670092	1.833267791119
0	463	238.544114008187	1.731765338095
0	465	240.324151367419	1.780037359232
0	467	241.41204798133	1.087896613911
0	469	241.69043797924	0.27838999790998
0	471	242.591132851912	0.90069487267201
0	473	244.569857851255	1.978724999343
0	475	245.000921815487	0.43106396423201
0	477	245.892968668871	0.89204685338399
0	479	246.524433494177	0.63146482530601
0	481	247.553752409405	1.029318915228
0	483	249.316760647111	1.763008237706
0	485	250.196211772449	0.87945112533802
0	487	251.13127533524	0.93506356279099
0	489	252.744575169602	1.613299834362
0	491	253.474891290142	0.73031612053998
0	493	253.897929204898	0.42303791475601
0	495	255.896162512981	1.998233308083
0	497	256.203371472137	0.30720895915601
0	499	257.464348011718	1.260976539581
0	503	258.697048742966	1.232700731248
0	504	258.698238827931	0.0011900849650033
0	505	258.699996827814	0.0017579998830115
0	507	260.246700860061	1.546704032247
0	509	261.701370840139	1.4546699800781
0	511	262.339726016401	0.638355176262
0	513	263.175173448332	0.83544743193096
0	515	264.540161912898	1.364988464566
0	517	265.901285880516	1.361123967618
0	519	266.31180964084	0.410523760324
0	521	267.984649400537	1.672839759697
0	523	269.402490622403	1.417841221866
0	525	271.059906526348	1.657415903945
0	527	271.249004133013	0.18909760666497
0	529	271.412479352249	0.16347521923603
0	531	272.940489059137	1.528009706888
0	533	274.199632731676	1.259143672539
0	535	274.627337086623	0.42770435494702
0	537	275.054430685814	0.42709359919098
0	539	275.216552280773	0.16212159495899
0	541	275.994198756607	0.77764647583399
0	543	277.8985180932	1.904319336593
0	545	279.79360821679	1.89509012359
0	547	280.573315388176	0.77970717138601
0	549	281.111744872198	0.538429484022
0	551	282.496082830791	1.384337958593
0	553	283.064152904668	0.56807007387698
0	555	284.617884548055	1.553731643387
0	557	286.185614953222	1.567730405167
0	559	287.030534588598	0.84491963537602
0	561	287.594846359583	0.564311770985
0	564	287.982781305287	0.38793494570399
0	565	288.005413758888	0.022632453600977
0	567	288.389061433761	0.38364767487303
0	569	290.355533029435	1.966471595674
0	571	290.84364152305	0.48810849361502
0	573	292.483093710227	1.639452187177
0	575	292.756003586313	0.27290987608603
0	577	293.552290967774	0.79628738146101
0	579	294.754311183204	1.20202021543
0	581	295.108071920363	0.35376073715901
0	583	296.764781354668	1.656709434305
0	585	297.080243714042	0.31546235937401
0	587	299.056117715191	1.975874001149
0	589	299.570455026929	0.51433731173796
0	591	300.037653413004	0.46719838607498
0	593	300.240928168837	0.20327475583304
0	595	300.679749459661	0.43882129082397
0	597	301.949184338855	1.269434879194
0	599	303.341198948222	1.392014609367
0	601	304.930738573713	1.589539625491
0	603	306.323224197609	1.3924856238961
0	605	307.829105023532	1.505880825923
0	607	309.16814630751	1.339041283978
0	609	310.435006120762	1.266859813252
0	611	310.547887446	0.11288132523799
0	613	311.74432071877	1.19643327277
0	615	312.198336162083	0.45401544331298
0	617	312.835891922711	0.637555760628
0	619	314.23556080317	1.399668880459
0	621	314.470434673667	0.23487387049698
0	623	315.995576117503	1.525141443836
0	625	317.047822670885	1.052246553382
0	627	318.155645362491	1.107822691606
0	629	319.331623189157	1.175977826666
0	631	319.990955965906	0.65933277674901
0	633	321.396934789641	1.405978823735
0	635	321.683025309985	0.28609052034403
0	637	322.006400727986	0.32337541800098
0	639	322.977051079113	0.97065035112701
0	641	324.697502470285	1.720451391172
0	643	326.324033895975	1.62653142569
0	645	327.437705460991	1.113671565016
0	647	328.915698678976	1.477993217985
0	649	329.547713355268	0.63201467629199
0	651	329.818377786549	0.27066443128098
0	653	330.875474322381	1.057096535832
0	655	331.496952054174	0.62147773179305
0	657	332.67319029819	1.176238244016
0	659	333.709357472319	1.036167174129
0	661	334.57105305663	0.86169558431101
0	663	335.088738571746	0.517685515116
0	665	335.829191123374	0.74045255162804
0	667	336.61522633084	0.786035207466
0	669	337.508958215915	0.893731885075
0	671	338.460750663255	0.95179244733998
0	673	339.236413100698	0.77566243744297
0	675	339.794999197349	0.55858609665103
0	677	339.951525613962	0.15652641661302
0	679	340.691009629227	0.73948401526496
0	681	341.198854192106	0.50784456287903
0	683	342.542422495423	1.343568303317
0	685	343.894896338033	1.35247384261
0	687	344.922769082528	1.027872744495
0	689	346.379985809823	1.457216727295
0	691	347.821521450071	1.441535640248
0	693	349.711027096211	1.88950564614
0	695	350.63242177261	0.92139467639896
0	697	352.512748012878	1.880326240268
0	699	353.155868193062	0.64312018018404
0	701	354.076736539027	0.92086834596495
0	703	355.111027174536	1.034290635509
0	705	356.43373816792	1.322710993384
0	707	357.237403978559	0.80366581063896
0	709	358.448683386267	1.211279407708
0	711	360.421688728552	1.973005342285
0	713	360.722476507263	0.30078777871097
0	715	362.062673308305	1.340196801042
0	717	362.750308425836	0.68763511753104
0	719	363.833728763518	1.083420337682
0	721	364.87934419027	1.045615426752
0	724	366.53782160451	1.65847741424
0	725	366.567722742099	0.029901137588979
0	727	367.116142207665	0.54841946556604
0	729	368.402099979617	1.285957771952
0	731	369.494373180988	1.092273201371
0	733	371.330068618998	1.83569543801
0	735	371.863295261073	0.53322664207502
0	737	373.803468609457	1.940173348384
0	739	374.296934900332	0.49346629087501
0	741	375.984885637961	1.687950737629
0	743	377.37293296962	1.388047331659
0	745	378.284436164876	0.91150319525605
0	748	379.918638828492	1.634202663616
0	749	379.96280622885	0.044167400358049
0	751	380.28430405118	0.32149782233
0	753	381.698203953161	1.413899901981
0	755	383.113856554869	1.415652601708
0	757	383.987133453913	0.87327689904396
0	759	385.151975687517	1.164842233604
0	761	386.655395873515	1.503420185998
0	763	388.638461938744	1.983066065229
0	765	390.029820243229	1.391358304485
0	767	390.588843729008	0.55902348577899
0	769	392.09656922183	1.507725492822
0	772	392.438927079142	0.34235785731198
0	773	392.447434926001	0.0085078468590041
0	775	393.438817078305	0.99138215230397
0	777	393.598650847693	0.159833769388
0	779	393.924812958859	0.32616211116601
0	781	395.731415325969	1.80660236711
0	783	397.297399342051	1.565984016082
0	785	398.790757636295	1.493358294244
0	788	399.663608988909	0.87285135261402
0	789	399.67629236931	0.012683380400972
0	791	400.845866770265	1.169574400955
0	793	401.882823615599	1.036956845334
0	795	402.01652314826	0.13369953266101
0	797	403.104568573548	1.088045425288
0	799	403.884031395693	0.77946282214504
0	801	404.315683180001	0.43165178430797
0	803	405.087222046113	0.771538866112
0	805	406.340944787034	1.253722740921
0	807	407.659051447336	1.318106660302
0	809	409.077691140474	1.418639693138
0	811	410.155013719033	1.077322578559
0	813	410.715591565426	0.56057784639302
0	815	412.347455896917	1.631864331491
0	817	413.091275269992	0.74381937307498
0	819	414.463478538742	1.37220326875
0	822	415.083816415522	0.62033787678001
0	823	415.102511458931	0.018695043409025
0	825	415.310106027869	0.20759456893796
0	827	416.352026165946	1.041920138077
0	829	417.903786823428	1.551760657482
0	831	418.345157118994	0.441370295566
0	833	418.455714700344	0.11055758135001
0	835	418.59698444199	0.141269741646
0	837	418.917532280835	0.32054783884502
0	839	420.365059742263	1.447527461428
0	841	420.959103962242	0.59404421997903
0	843	421.06030915107	0.10120518882798
0	845	422.015917785793	0.95560863472298
0	847	422.93024157808	0.91432379228701
0	849	423.97021855072	1.03997697264
0	851	424.863197703636	0.89297915291598
0	853	425.163820770499	0.30062306686301
0	855	425.735705542574	0.57188477207501
0	857	427.403069811914	1.66736426934
0	859	428.794344611223	1.391274799309
0	861	429.949896603187	1.155551991964
0	863	431.312225534579	1.362328931392
0	865	431.974575445363	0.66234991078397
0	867	432.089525987755	0.11495054239202
0	869	434.063291965401	1.973765977646
0	872	435.14807826366	1.084786298259
0	873	435.151393095887	0.0033148322269767
0	876	436.863778334833	1.712385238946
0	877	436.9224892946	0.058710959766984
0	879	437.677590103989	0.75510080938903
0	881	438.656893510065	0.97930340607599
0	883	439.809239432446	1.152345922381
0	885	441.28715688734	1.4779174548941
0	887	442.645821285123	1.3586643977829
0	890	443.718354823256	1.072533538133
0	891	443.789530227182	0.07117540392602
0	893	444.034544013776	0.24501378659397
0	895	445.98125529786	1.946711284084
0	897	446.357806891689	0.37655159382899
0	899	447.060444379107	0.70263748741797
0	901	448.288695418729	1.228251039622
0	903	449.503918353556	1.215222934827
0	905	449.755783988368	0.25186563481196
0	907	450.861508273308	1.10572428494
0	909	452.76956526444	1.908056991132
0	911	453.483415220011	0.71384995557099
0	913	455.159618498685	1.676203278674
0	915	457.108123171047	1.948504672362
0	917	457.626151555363	0.51802838431598
0	919	458.129206750921	0.50305519555803
0	921	458.97787850055	0.84867174962898
0	923	460.60397452176	1.62609602121
0	925	462.39980299635	1.79582847459
0	927	462.888975438463	0.48917244211299
0	929	464.410210026006	1.521234587543
0	931	465.79992286604	1.389712840034
0	933	466.703625325759	0.903702459719
0	935	467.230865821202	0.52724049544298
0	937	468.561872731542	1.33100691034
0	939	468.795014822612	0.23314209107002
0	941	469.214139434461	0.41912461184899
0	943	469.441490773169	0.22735133870799
0	946	470.535440446444	1.093949673275
0	947	470.547599186762	0.012158740318
0	949	470.899547703369	0.35194851660697
0	951	472.098266321597	1.198718618228
0	953	472.962082886902	0.863816565305
0	955	473.12709596651	0.165013079608
0	957	474.501924943729	1.374828977219
0	959	475.252545067077	0.75062012334803
0	961	476.924958185108	1.672413118031
0	963	477.172232933273	0.24727474816501
0	966	479.118925339448	1.946692406175
0	967	479.1781959235	0.059270584052001
0	969	479.338902086959	0.160706163459
0	971	480.327391339934	0.988489252975
0	973	481.866266098127	1.538874758193
0	975	483.734327043599	1.868060945472
0	977	484.234637587757	0.50031054415803
0	979	484.953953243621	0.71931565586402
0	981	486.492181357542	1.538228113921
0	983	487.492092019958	0.99991066241597
0	985	488.990595251168	1.49850323121
0	987	490.334402196581	1.343806945413
0	989	491.697733757261	1.36333156068
0	992	493.211274111592	1.513540354331
0	993	493.284009349515	0.072735237922984
0	995	493.745153119054	0.46114376953904
0	997	494.188487753676	0.44333463462198
0	999	495.313691849817	1.125204096141
0	1001	496.618935689935	1.305243840118
0	1003	497.852156546215	1.23322085628
0	1005	498.595088039188	0.74293149297301
0	1007	499.044690430037	0.44960239084901
0	1009	499.512073426598	0.46738299656096
0	1011	500.818096622592	1.306023195994
0	1013	501.149951695386	0.33185507279399
0	1015	502.638160151113	1.488208455727
0	1018	502.957675548103	0.31951539699003
0	1019	503.052952753257	0.095277205153991
0	1021	504.376939775916	1.323987022659
0	1023	504.626829602434	0.24988982651797
0	1025	506.525143897723	1.898314295289
0	1027	507.493504824199	0.96836092647595
0	1029	508.735596098666	1.242091274467
0	1032	510.563646071239	1.828049972573
0	1033	510.599535111003	0.035889039764015
0	1035	511.786626426721	1.187091315718
0	1037	513.230369698215	1.443743271494
0	1039	514.223533700642	0.99316400242697
0	1041	514.330922483007	0.10738878236509
0	1043	515.21418769094	0.88326520793294
0	1045	516.252537419524	1.038349728584
0	1047	517.796425722763	1.543888303239
0	1049	517.927138258056	0.13071253529301
0	1051	518.81271893042	0.88558067236409
0	1053	520.767079344695	1.9543604142749
0	1055	521.702562066906	0.93548272221108
0	1057	522.360674273709	0.65811220680303
0	1059	523.252534007624	0.891859733915
0	1061	524.739081915199	1.486547907575
0	1063	525.149764533077	0.41068261787802
0	1065	525.492523207411	0.34275867433394
0	1067	526.237562741582	0.74503953417104
0	1069	528.117013547942	1.87945080636
0	1071	530.046716047791	1.929702499849
0	1073	530.556631004084	0.50991495629307
0	1075	530.697301421026	0.14067041694193
0	1077	530.944998968219	0.24769754719307
0	1079	531.997674648967	1.0526756807479
0	1081	532.317840973381	0.320166324414
0	1083	533.353255406039	1.0354144326581
0	1085	533.563625082489	0.21036967645
0	1087	535.246777169374	1.683152086885
0	1089	535.98390144979	0.73712428041597
0	1091	536.831682401484	0.84778095169406
0	1093	537.486137515013	0.65445511352891
0	1095	538.913230604304	1.427093089291
0	1097	540.066782324924	1.15355172062
0	1099	541.810550783991	1.7437684590669
0	1101	543.327042317023	1.5164915330321
0	1103	545.000237984436	1.673195667413
0	1105	546.399820189497	1.3995822050609
0	1107	547.17794064426	0.77812045476298
0	1109	549.048423847991	1.8704832037311
0	1111	550.259628951058	1.211205103067
0	1113	550.983796203355	0.72416725229709
0	1115	552.062805553315	1.07900934996
0	1117	552.972950337295	0.91014478397994
0	1119	553.77633469387	0.80338435657507
0	1121	554.257215646534	0.48088095266394
0	1123	554.423387072565	0.16617142603104
0	1125	555.266544373683	0.84315730111803
0	1127	556.211304267354	0.94475989367095
0	1129	556.790837196389	0.57953292903505
0	1131	557.000775482359	0.20993828597
0	1133	557.433547781835	0.43277229947603
0	1135	559.037585080472	1.604037298637
0	1137	560.092463264604	1.054878184132
0	1139	561.43010396702	1.337640702416
0	1141	563.157389473097	1.7272855060769
0	1143	563.644890105506	0.48750063240902
0	1145	565.068018999768	1.423128894262
0	1147	565.59534485465	0.52732585488195
0	1149	566.360987861197	0.76564300654707
0	1151	566.522998899784	0.16201103858691
0	1153	567.442524438783	0.9195255389991
0	1155	567.908258401133	0.46573396234999
0	1157	569.498963624324	1.590705223191
0	1160	570.481649794227	0.98268616990299
0	1161	570.488107355857	0.0064575616299862
0	1163	571.020345671896	0.53223831603896
0	1165	572.349723334906	1.3293776630101
0	1167	573.200105535744	0.850382200838
0	1169	573.573755024121	0.37364948837694
0	1171	575.500706180085	1.926951155964
0	1173	575.768784463617	0.26807828353196
0	1175	577.360495779685	1.5917113160681
0	1177	579.252584927687	1.8920891480019
0	1179	579.594895393719	0.34231046603202
0	1181	580.806897988307	1.2120025945881
0	1183	580.934505234296	0.127607245989
0	1185	581.629488570763	0.69498333646698
0	1187	582.214424568648	0.58493599788505
0	1189	583.233741024472	1.019316455824
0	1191	584.885414058143	1.6516730336709
0	1193	586.554090971705	1.6686769135621
0	1195	588.006977201763	1.452886230058
0	1197	588.66584577847	0.65886857670705
0	1199	590.270014489516	1.604168711046
0	1202	591.533541036873	1.2635265473569
0	1204	591.624222469662	0.090681432788983
0	1205	591.707063347286	0.082840877623994
0	1207	592.013693568624	0.30663022133808
0	1209	593.547823601513	1.5341300328889
0	1211	593.67128636146	0.12346275994707
0	1213	594.709892793279	1.0386064318189
0	1215	596.568192372684	1.858299579405
0	1217	597.009223438659	0.44103106597504
0	1219	597.41834927821	0.40912583955105
0	1221	597.59633460468	0.17798532646998
0	1223	598.995716583769	1.399381979089
0	1225	600.408639131626	1.412922547857
0	1227	601.39790096045	0.98926182882406
0	1229	601.92145799874	0.52355703829005
0	1231	603.344600542465	1.4231425437249
0	1233	604.10133293308	0.75673239061507
0	1235	604.502621992116	0.401289059036
0	1237	604.967837211517	0.46521521940099
0	1239	605.840029690662	0.87219247914493
0	1241	606.779026678517	0.93899698785503
0	1243	608.501401550692	1.722374872175
0	1245	610.455878199612	1.95447664892
0	1248	611.344916605407	0.88903840579496
0	1249	611.413402804222	0.068486198814981
0	1252	612.460946284771	1.0475434805491
0	1253	612.52422386837	0.063277583598961
0	1255	614.030571412631	1.506347544261
0	1257	615.213747814253	1.1831764016221
0	1259	616.859529878735	1.645782064482
0	1261	617.518687619925	0.65915774119003
0	1263	617.982843808212	0.46415618828701
0	1265	619.05590034637	1.073056538158
0	1267	619.917137162112	0.86123681574202
0	1269	620.72429933558	0.80716217346799
0	1271	622.698948816112	1.974649480532
0	1273	624.632768121233	1.933819305121
0	1275	626.333829287917	1.701061166684
0	1277	628.068857740965	1.735028453048
0	1279	628.692068116452	0.62321037548702
0	1281	628.988848933801	0.29678081734903
0	1283	630.98404611632	1.995197182519
0	1285	632.263092712944	1.279046596624
0	1287	633.19924216433	0.93614945138609
0	1289	635.063071613086	1.863829448756
0	1291	636.444616850995	1.381545237909
0	1293	638.075430385195	1.6308135342
0	1295	639.158499678528	1.083069293333
0	1297	640.30411272263	1.145613044102
0	1299	640.622544953281	0.31843223065107
0	1301	642.513045498732	1.890500545451
0	1303	644.155712888972	1.6426673902399
0	1306	644.466540648211	0.31082775923903
0	1307	644.548690182735	0.082149534523978
0	1309	645.235916935806	0.68722675307106
0	1311	645.455955793219	0.22003885741299
0	1313	645.649032341475	0.19307654825593
0	1316	646.686578888157	1.0375465466821
0	1317	646.731388965353	0.044810077195962
0	1319	647.854356404648	1.1229674392951
0	1321	649.568108639801	1.713752235153
0	1323	650.601924850277	1.0338162104759
0	1325	651.950974314773	1.349049464496
0	1327	653.425324104781	1.474349790008
0	1330	654.822244768736	1.396920663955
0	1331	654.867843862418	0.045599093681972
0	1333	655.251811374884	0.38396751246603
0	1335	656.593793390917	1.3419820160329
0	1337	657.285536865693	0.69174347477599
0	1339	657.418117422661	0.13258055696804
0	1341	657.699538392196	0.28142096953502
0	1343	659.541773372438	1.842234980242
0	1345	659.985086291412	0.44331291897402
0	1347	660.745315483509	0.76022919209697
0	1349	661.917347055212	1.172031571703
0	1352	662.251972668312	0.3346256131
0	1353	662.304652043151	0.052679374839045
0	1355	663.6869049549	1.382252911749
0	1357	665.211592727295	1.5246877723949
0	1359	666.638983376943	1.427390649648
0	1361	666.793632012551	0.15464863560805
0	1363	667.973250683705	1.179618671154
0	1365	669.824256776139	1.851006092434
0	1367	671.683652319187	1.859395543048
0	1369	672.544544324853	0.86089200566596
0	1371	673.556483547317	1.011939222464
0	1373	675.218995504969	1.6625119576521
0	1375	677.057467765056	1.838472260087
0	1377	678.260743047552	1.203275282496
0	1379	679.708415962008	1.447672914456
0	1381	680.747089231123	1.0386732691151
0	1383	681.728723243072	0.98163401194893
0	1385	682.051562073984	0.32283883091202
0	1387	684.003793211044	1.95223113706
0	1389	685.152513774037	1.1487205629929
0	1391	685.699015996599	0.54650222256203
0	1393	686.76187058792	1.062854591321
0	1395	688.158986914366	1.3971163264461
0	1397	689.493085496212	1.334098581846
0	1399	689.687950580556	0.19486508434397
0	1401	690.785423150041	1.097472569485
0	1403	692.006898483585	1.221475333544
0	1405	693.342829360641	1.3359308770559
0	1407	694.333080039835	0.99025067919399
0	1409	695.476245255286	1.1431652154511
0	1411	696.654021338253	1.1777760829669
0	1413	697.536647769727	0.88262643147402
0	1415	697.839081550262	0.30243378053501
0	1417	698.84363100749	1.004549457228
0	1420	700.306358639613	1.462727632123
0	1421	700.369671737336	0.063313097723039
0	1423	700.472905159537	0.1032334222009
0	1425	701.517032087876	1.0441269283391
0	1428	702.158316678762	0.6412845908859
0	1429	702.228435693736	0.070119014974011
0	1431	702.718720358521	0.49028466478501
0	1433	702.933081394817	0.21436103629605
0	1435	703.699018424558	0.76593702974094
0	1437	704.802677277239	1.1036588526811
0	1439	705.997014292835	1.1943370155959
0	1441	707.219235421115	1.22222112828
0	1443	709.08973842942	1.870503008305
0	1445	710.633799017091	1.544060587671
0	1447	711.660095998248	1.0262969811571
0	1449	712.633458302972	0.97336230472399
0	1451	713.93371379125	1.3002554882779
0	1453	715.327705287382	1.393991496132
0	1455	716.142780773729	0.81507548634704
0	1457	717.116479801855	0.97369902812602
0	1459	718.076045512578	0.95956571072293
0	1461	719.496945637365	1.4209001247871
0	1463	720.565342929798	1.068397292433
0	1465	721.118636859491	0.55329392969293
0	1467	722.329713209075	1.211076349584
0	1469	722.889920666618	0.56020745754302
0	1471	724.296659583685	1.4067389170671
0	1473	725.357638729758	1.060979146073
0	1475	727.234146780299	1.8765080505409
0	1477	727.704952217822	0.47080543752304
0	1479	728.531940672184	0.82698845436198
0	1481	729.726893132746	1.194952460562
0	1483	731.2928978037	1.5660046709539
0	1485	733.133402532815	1.8405047291151
0	1487	734.496384763711	1.362982230896
0	1489	736.138739427006	1.6423546632949
0	1491	737.193565424477	1.0548259974711
0	1493	737.654104923989	0.46053949951192
0	1495	737.941473225425	0.287368301436
0	1497	739.74051546046	1.799042235035
0	1499	740.24335969376	0.50284423330004
0	1502	741.546388766838	1.3030290730779
0	1503	741.5560199843	0.0096312174620152
0	1505	743.427891865427	1.871871881127
0	1507	743.978597971922	0.550706106495
0	1509	745.696129825146	1.7175318532239
0	1511	746.253986959785	0.55785713463911
0	1513	748.158848841138	1.904861881353
0	1515	749.1724887471	1.013639905962
0	1517	749.418388250334	0.245899503234
0	1519	750.251339100739	0.83295085040493
0	1521	751.656281861637	1.4049427608981
0	1523	752.529264278345	0.87298241670794
0	1525	752.744741897765	0.21547761942008
0	1527	754.277091498004	1.5323496002389
0	1529	754.476822713	0.19973121499595
0	1531	755.35935315585	0.88253044285
0	1533	756.048506135463	0.68915297961303
0	1535	756.642634489261	0.59412835379806
0	1537	758.157876770405	1.515242281144
0	1539	758.834895959832	0.67701918942703
0	1541	759.496412661943	0.66151670211093
0	1543	759.607625035706	0.11121237376301
0	1545	760.753990869709	1.1463658340031
0	1547	761.724562950624	0.97057208091496
0	1549	762.129526891195	0.40496394057095
0	1551	762.35847606093	0.22894916973507
0	1553	764.307171795981	1.9486957350509
0	1555	766.036390792916	1.7292189969351
0	1557	767.020072282156	0.98368148923998
0	1559	767.754861942699	0.73478966054302
0	1561	769.364686682845	1.609824740146
0	1563	769.689094320115	0.32440763727004
0	1565	770.00825392301	0.31915960289496
0	1567	770.123699779069	0.11544585605895
0	1569	770.422202557842	0.29850277877301
0	1571	771.358405402883	0.93620284504107
0	1573	772.119622003663	0.76121660078002
0	1575	773.8870313133	1.7674093096369
0	1577	774.7352983744	0.84826706110005
0	1579	775.559794274275	0.82449589987493
0	1581	776.862383472525	1.3025891982501
0	1583	777.479038454671	0.61665498214597
0	1585	777.59932338553	0.12028493085893
0	1587	779.228156330957	1.628832945427
0	1589	781.023470127822	1.795313796865
0	1591	782.862454029523	1.838983901701
0	1593	784.664889924859	1.8024358953361
0	1595	786.204982838079	1.54009291322
0	1597	786.546575322392	0.34159248431297
0	1600	787.691459168858	1.144883846466
0	1601	787.754266721404	0.062807552546019
0	1603	789.360802357109	1.6065356357051
0	1605	790.405231657017	1.044429299908
0	1607	792.12847521008	1.723243553063
0	1609	792.682871532335	0.554396322255
0	1611	794.421859675605	1.73898814327
0	1613	795.595583620614	1.173723945009
0	1615	796.373927393492	0.77834377287797
0	1617	797.997718155704	1.623790762212
0	1619	799.049058653292	1.0513404975881
0	1621	800.928801622063	1.879742968771
0	1623	801.768877764445	0.84007614238192
0	1625	802.928602777243	1.159725012798
0	1627	804.426892868762	1.498290091519
0	1629	806.188461034967	1.7615681662049
0	1631	806.864630434454	0.67616939948698
0	1633	807.243727611346	0.37909717689206
0	1635	808.729979639602	1.486252028256
0	1637	810.167818535518	1.437838895916
0	1639	811.926142194595	1.758323659077
0	1641	812.071880293433	0.14573809883802
0	1643	813.49210746781	1.420227174377
0	1645	815.250227224985	1.758119757175
0	1647	815.968986057983	0.71875883299799
0	1649	816.148692255299	0.17970619731602
0	1651	816.470750540104	0.32205828480494
0	1653	817.304343260822	0.833592720718
0	1655	817.497200367128	0.19285710630606
0	1657	818.846586053044	1.349385685916
0	1659	819.971809239435	1.1252231863909
0	1661	821.597902913712	1.6260936742771
0	1663	823.354286487235	1.756383573523
0	1665	824.89300668779	1.5387202005551
0	1667	826.163417412366	1.270410724576
0	1669	827.956465358216	1.7930479458499
0	1671	829.713291260602	1.756825902386
0	1673	830.68623266247	0.97294140186796
0	1675	830.9123738518	0.22614118933006
0	1677	831.667342926542	0.75496907474201
0	1679	832.432582121865	0.76523919532303
0	1681	833.807737918802	1.375155796937
0	1683	834.051217043186	0.24347912438395
0	1685	834.204860561013	0.15364351782705
0	1687	834.491464671298	0.286604110285
0	1689	835.446746231121	0.95528155982299
0	1691	836.863922172019	1.417175940898
0	1693	837.339960842408	0.47603867038902
0	1695	838.121894070326	0.78193322791799
0	1697	840.073655689491	1.951761619165
0	1699	841.331189002852	1.2575333133609
0	1701	842.693586657468	1.3623976546161
0	1703	844.510967796296	1.817381138828
0	1705	845.235768083448	0.72480028715199
0	1707	846.954194248488	1.71842616504
0	1709	848.542750073239	1.588555824751
0	1711	849.400496668224	0.85774659498509
0	1713	849.547518579399	0.14702191117499
0	1715	850.544779705458	0.9972611260589
0	1717	851.512525375095	0.96774566963711
0	1719	852.413994960069	0.90146958497394
0	1721	853.413309621672	0.99931466160297
0	1723	854.894827185005	1.481517563333
0	1725	856.760514115658	1.8656869306531
0	1727	857.360757608921	0.60024349326295
0	1729	857.653148876662	0.29239126774098
0	1731	857.873185804375	0.22003692771307
0	1733	858.03382987842	0.16064407404497
0	1735	859.978782359821	1.9449524814011
0	1737	860.7951372608	0.81635490097892
0	1739	861.271958009321	0.47682074852105
0	1741	863.198278408444	1.926320399123
0	1743	864.865226475313	1.6669480668689
0	1745	865.261386346979	0.39615987166599
0	1747	865.520349434673	0.25896308769404
0	1749	865.912964311707	0.39261487703402
0	1751	866.591202626599	0.67823831489193
0	1753	867.742561021087	1.1513583944881
0	1755	868.623097187517	0.88053616643003
0	1757	869.79444637265	1.171349185133
0	1759	870.660200903818	0.86575453116802
0	1761	871.396606248841	0.73640534502294
0	1763	872.161240048169	0.76463379932807
0	1765	873.361505351051	1.2002653028819
0	1767	874.220450884153	0.85894553310209
0	1769	874.518025727572	0.29757484341894
0	1771	875.858419063755	1.3403933361831
0	1773	877.849220285442	1.990801221687
0	1775	879.245353175296	1.396132889854
0	1777	880.050832948991	0.80547977369497
0	1779	881.749389446544	1.698556497553
0	1781	883.388443814626	1.6390543680819
0	1783	884.975208168692	1.5867643540661
0	1786	885.723706961801	0.74849879310898
0	1787	885.742922738395	0.019215776594024
0	1789	886.702479953594	0.95955721519897
0	1791	887.980595797612	1.278115844018
0	1793	889.273586206121	1.292990408509
0	1795	890.563382009628	1.289795803507
0	1797	892.161451547803	1.598069538175
0	1799	892.91617965773	0.7547281099271
0	1801	893.631523205117	0.71534354738696
0	1803	894.410524134105	0.77900092898801
0	1805	895.079137639035	0.66861350493002
0	1807	896.466314993406	1.3871773543709
0	1809	896.756109903309	0.28979490990309
0	1811	897.339160638875	0.58305073556596
0	1813	898.672873302066	1.333712663191
0	1815	900.381603557184	1.708730255118
0	1817	901.011001325073	0.62939776788892
0	1819	901.29928623605	0.28828491097704
0	1822	902.503785026815	1.204498790765
0	1823	902.514961421119	0.011176394304016
0	1825	904.356620486381	1.841659065262
0	1827	905.120530349113	0.76390986273202
0	1829	906.153593293783	1.03306294467
0	1831	906.842504358632	0.68891106484909
0	1833	907.370771271204	0.52826691257201
0	1835	907.95277087234	0.58199960113598
0	1837	909.620067164445	1.667296292105
0	1839	909.868848579263	0.24878141481793
0	1842	911.138087431819	1.2692388525561
0	1843	911.235482332261	0.097394900441941
0	1845	912.151574057918	0.916091725657
0	1847	912.905207171847	0.75363311392903
0	1849	913.216952974864	0.31174580301695
0	1851	914.728664282438	1.511711307574
0	1854	916.060610677464	1.331946395026
0	1855	916.083671887764	0.023061210300057
0	1857	917.673433405515	1.589761517751
0	1859	918.79526224522	1.121828839705
0	1861	919.372571171289	0.57730892606901
0	1863	920.20369161055	0.83112043926099
0	1865	920.844914266622	0.64122265607205
0	1867	921.874094864615	1.029180597993
0	1869	923.312405335717	1.438310471102
0	1871	924.996493143814	1.6840878080969
0	1873	925.460283827106	0.46379068329202
0	1875	926.390297911632	0.93001408452596
0	1877	927.1370165459	0.74671863426806
0	1879	927.237102682668	0.10008613676803
0	1881	927.38480333708	0.14770065441201
0	1883	927.789702031985	0.404898694905
0	1885	928.922067299305	1.13236526732
0	1887	930.585115142761	1.663047843456
0	1889	931.430220104811	0.84510496204996
0	1891	933.109317271878	1.6790971670671
0	1893	933.695404163742	0.58608689186394
0	1895	934.057795729837	0.36239156609497
0	1897	934.772847090598	0.71505136076109
0	1899	936.641067405851	1.868220315253
0	1901	937.819905870831	1.17883846498
0	1903	938.557986796483	0.73808092565196
0	1905	939.484104227355	0.92611743087207
0	1907	940.739764898749	1.2556606713939
0	1909	942.628669020402	1.888904121653
0	1911	943.440241636768	0.81157261636599
0	1913	943.541204908038	0.10096327127007
0	1915	944.43090514332	0.88970023528191
0	1917	945.62275952674	1.19185438342
0	1919	947.119381668888	1.496622142148
0	1921	948.847724742971	1.728343074083
0	1923	949.109770864154	0.26204612118306
0	1925	949.3189295847	0.20915872054593
0	1927	950.649545801495	1.3306162167951
0	1929	952.316301472953	1.666755671458
0	1931	953.478871663179	1.162570190226
0	1933	954.79605879145	1.317187128271
0	1936	956.760123635386	1.9640648439359
0	1937	956.79795566643	0.03783203104399
0	1939	958.64090142461	1.84294575818
0	1941	959.030259159263	0.389357734653
0	1943	960.965705470021	1.935446310758
0	1945	962.011850385321	1.0461449152999
0	1947	962.569441840638	0.55759145531704
0	1949	964.00903135198	1.439589511342
0	1951	965.189948479588	1.180917127608
0	1953	966.864112184174	1.674163704586
0	1955	968.533495165976	1.669382981802
0	1957	969.853270313023	1.319775147047
0	1959	971.314166728408	1.4608964153849
0	1961	972.600220102485	1.286053374077
0	1963	973.299278218293	0.69905811580804
0	1965	974.369030600906	1.0697523826129
0	1967	975.697325172082	1.328294571176
0	1969	976.344182932299	0.64685776021702
0	1971	978.082558891164	1.738375958865
0	1973	978.967299531054	0.88474063988997
0	1975	980.803234161573	1.835934630519
0	1977	981.356569290183	0.55333512861
0	1979	983.260075833625	1.9035065434421
0	1981	983.494551469658	0.23447563603293
0	1983	984.326566270095	0.83201480043704
0	1985	985.99931721142	1.672750941325
0	1987	987.92438806622	1.9250708548
0	1989	988.590244695209	0.66585662898899
0	1991	989.642608110016	1.052363414807
0	1993	990.714520778229	1.071912668213
0	1995	992.350735437609	1.6362146593799
0	1997	994.210515635507	1.8597801978981
0	1999	995.536301704229	1.325786068722
0	2001	996.022758707736	0.48645700350698
0	2003	997.905616650635	1.882857942899
0	2005	999.099062956771	1.193446306136
0	2007	999.35113018753	0.25206723075894
0	2009	999.845077557738	0.49394737020805
0	2011	1001.618528640972	1.7734510832339
0	2013	1002.010884559108	0.3923559181361
0	2015	1002.336800665141	0.32591610603299
0	2017	1004.00879476345	1.6719940983089
0	2019	1005.213605049952	1.204810286502
0	2021	1006.460090285702	1.24648523575
0	2023	1008.137447535445	1.677357249743
0	2025	1009.480743966144	1.3432964306991
0	2027	1010.263854727592	0.78311076144792
0	2029	1012.006422389622	1.7425676620301
0	2031	1013.341118124327	1.334695734705
0	2034	1013.572331314096	0.23121318976905
0	2035	1013.572411764534	8.0450437963009e-005
0	2037	1014.924542276008	1.352130511474
0	2039	1016.182048618267	1.257506342259
0	2041	1017.091142965378	0.90909434711102
0	2044	1018.239834852018	1.14869188664
0	2045	1018.304373602846	0.064538750827978
0	2047	1019.007158761703	0.70278515885695
0	2049	1020.717323673613	1.7101649119101
0	2051	1021.458998145605	0.74167447199193
0	2053	1022.781848913744	1.322850768139
0	2055	1023.934709026769	1.152860113025
0	2057	1024.054628639829	0.11991961306001
0	2059	1025.543565332067	1.488936692238
0	2061	1026.10255178101	0.55898644894296
0	2063	1026.987799168414	0.88524738740421
0	2065	1027.340639270856	0.35284010244186
0	2067	1027.524241013552	0.18360174269606
0	2069	1029.318730502393	1.794489488841
0	2071	1031.30356945749	1.9848389550971
0	2074	1032.491887777662	1.1883183201719
0	2075	1032.557894909403	0.066007131740889
0	2077	1033.939758086869	1.3818631774661
0	2079	1034.914181760327	0.97442367345798
0	2081	1036.052861563275	1.138679802948
0	2083	1037.844309710214	1.791448146939
0	2085	1038.713315314334	0.86900560412005
0	2087	1040.090503766563	1.3771884522289
0	2089	1040.49682038705	0.4063166204869
0	2091	1041.460260910981	0.96344052393101
0	2093	1042.005146627636	0.54488571665502
0	2095	1043.899386444401	1.8942398167651
0	2097	1044.387986820691	0.48860037628992
0	2099	1046.294511120291	1.9065242996001
0	2101	1047.248414504311	0.95390338402012
0	2103	1047.50258972132	0.25417521700888
0	2105	1049.425461995467	1.922872274147
0	2107	1051.139773581096	1.714311585629
0	2110	1051.574593240517	0.43481965942101
0	2111	1051.588609123731	0.014015883213915
0	2113	1053.153558298871	1.5649491751401
0	2115	1053.254344882416	0.10078658354496
0	2117	1055.174454524117	1.9201096417009
0	2119	1056.457202593397	1.2827480692799
0	2121	1057.604002985307	1.1468003919101
0	2123	1057.878189817334	0.274186832027
0	2125	1058.136275689501	0.25808587216693
0	2127	1059.785529197414	1.649253507913
0	2129	1060.78923668688	1.003707489466
0	2131	1062.101012144605	1.3117754577249
0	2133	1063.111130125727	1.010117981122
0	2135	1064.164038842009	1.052908716282
0	2137	1064.40083339861	0.23679455660113
0	2139	1066.206946197382	1.8061127987719
0	2141	1067.54475515626	1.337808958878
0	2143	1068.099927014107	0.55517185784697
0	2145	1068.873341840488	0.77341482638099
0	2147	1069.656328821716	0.78298698122808
0	2149	1071.318522312682	1.662193490966
0	2151	1071.804524983509	0.48600267082702
0	2153	1072.051413578326	0.24688859481694
0	2155	1073.508026665168	1.456613086842
0	2157	1074.804177223468	1.2961505583
0	2159	1075.206610578063	0.4024333545949
0	2162	1076.904001255329	1.697390677266
0	2163	1076.949114072898	0.045112817569134
0	2165	1077.160238958824	0.21112488592598
0	2167	1077.536196710646	0.37595775182194
0	2169	1078.258131578074	0.72193486742799
0	2171	1079.817448434655	1.5593168565811
0	2173	1081.255856998238	1.4384085635829
0	2175	1082.588585143571	1.332728145333
0	2177	1083.750523761118	1.1619386175471
0	2179	1084.452868873784	0.70234511266585
0	2181	1084.767177446491	0.31430857270698
0	2183	1085.351358931529	0.58418148503802
0	2185	1085.689577970829	0.33821903930016
0	2187	1086.136971479665	0.44739350883583
0	2189	1087.479674492108	1.3427030124431
0	2191	1088.289204629592	0.80953013748399
0	2193	1090.062225318862	1.77302068927
0	2195	1091.220949879804	1.1587245609421
0	2197	1091.904645630433	0.68369575062889
0	2199	1092.779126458552	0.87448082811898
0	2201	1094.178404650122	1.3992781915701
0	2203	1095.846970364699	1.668565714577
0	2205	1097.430935268344	1.583964903645
0	2207	1099.129070833238	1.6981355648941
0	2209	1099.693510014739	0.5644391815008
0	2211	1100.222833506253	0.52932349151411
0	2213	1100.562755387856	0.339921881603
0	2215	1101.629819490161	1.067064102305
0	2217	1101.776186924641	0.14636743448
0	2219	1103.773658236701	1.99747131206
0	2221	1105.274000025334	1.500341788633
0	2223	1105.518441579398	0.244441554064
0	2225	1105.847640735344	0.32919915594584
0	2227	1106.697854717905	0.85021398256094
0	2229	1108.244259616792	1.5464048988872
0	2231	1108.671395206523	0.42713558973082
0	2234	1109.539251823081	0.86785661655813
0	2235	1109.605406320787	0.066154497705838
0	2237	1111.464049272307	1.8586429515201
0	2239	1111.676135461013	0.21208618870605
0	2241	1112.208709037346	0.53257357633288
0	2243	1113.172806470587	0.96409743324102
0	2245	1114.758366954252	1.5855604836649
0	2247	1115.273415911922	0.51504895767016
0	2249	1115.701247465975	0.427831554053
0	2251	1116.266176439332	0.56492897335693
0	2253	1117.027431645295	0.76125520596293
0	2255	1117.443678272015	0.41624662672007
0	2257	1119.300733554169	1.8570552821541
0	2259	1120.828860711079	1.5281271569099
0	2261	1122.061986890968	1.233126179889
0	2263	1123.213692291591	1.1517054006231
0	2265	1123.926360566452	0.71266827486079
0	2267	1125.742056157637	1.8156955911852
0	2269	1126.137857205616	0.39580104797892
0	2271	1126.366070585813	0.22821338019708
0	2273	1127.948351559522	1.582280973709
0	2276	1129.34467669205	1.3963251325279
0	2277	1129.381179098068	0.036502406018144
0	2279	1130.877117044086	1.4959379460179
0	2281	1131.106175765295	0.22905872120896
0	2283	1132.896103132318	1.789927367023
0	2285	1134.205360690543	1.309257558225
0	2287	1134.8971417833	0.69178109275708
0	2289	1135.661967754522	0.76482597122208
0	2291	1136.092066081599	0.43009832707685
0	2294	1136.754649265405	0.66258318380619
0	2295	1136.790219488306	0.035570222900787
0	2297	1138.618955785081	1.8287362967751
0	2299	1140.189895685235	1.5709399001539
0	2301	1140.976797569382	0.78690188414703
0	2303	1142.436764434499	1.4599668651172
0	2305	1144.099866451126	1.6631020166269
0	2307	1145.85545990734	1.755593456214
0	2309	1146.114678497795	0.25921859045502
0	2311	1146.801528271045	0.68684977325006
0	2313	1148.685667283536	1.884139012491
0	2315	1149.410050226416	0.72438294287986
0	2317	1150.114171206388	0.704120979972
0	2319	1150.275481599826	0.16131039343804
0	2321	1151.419264118231	1.143782518405
0	2323	1152.972050957217	1.5527868389859
0	2325	1154.660453800734	1.688402843517
0	2327	1155.647044782677	0.98659098194321
0	2329	1157.281678296606	1.634633513929
0	2331	1158.567146896032	1.2854685994259
0	2333	1159.437897454069	0.87075055803689
0	2335	1160.142526377374	0.70462892330511
0	2337	1160.840840358994	0.69831398162
0	2339	1161.403929443136	0.56308908414189
0	2341	1163.242166624367	1.8382371812311
0	2343	1164.494471566366	1.252304941999
0	2345	1165.983631742495	1.489160176129
0	2347	1166.298711937376	0.31508019488115
0	2349	1167.851547298269	1.5528353608929
0	2351	1168.355457818618	0.50391052034888
0	2353	1169.579573318483	1.2241154998651
0	2355	1171.288779554874	1.7092062363911
0	2357	1171.917994577716	0.62921502284189
0	2359	1173.134883483786	1.2168889060699
0	2361	1173.386727794105	0.25184431031903
0	2363	1174.134051325179	0.74732353107402
0	2365	1174.400638088156	0.26658676297711
0	2367	1174.924363444375	0.52372535621885
0	2369	1175.176425420612	0.2520619762372
0	2371	1175.582060040096	0.40563461948386
0	2373	1177.083109715842	1.5010496757461
0	2375	1177.225009985223	0.14190026938081
0	2377	1178.142837467054	0.91782748183118
0	2379	1180.069324606446	1.9264871393918
0	2381	1180.538676366776	0.46935176033003
0	2383	1180.933712238265	0.39503587148897
0	2385	1182.301604345897	1.3678921076321
0	2387	1182.464257316264	0.16265297036693
0	2389	1184.172730281413	1.708472965149
0	2391	1184.477855547869	0.30512526645612
0	2393	1184.718208867775	0.24035331990603
0	2395	1186.336456525612	1.6182476578369
0	2398	1188.224841784175	1.8883852585629
0	2399	1188.315882453226	0.091040669050926
0	2401	1188.436407201511	0.12052474828511
0	2403	1190.09585162102	1.6594444195091
0	2405	1190.378210301072	0.28235868005186
0	2407	1191.980545933666	1.6023356325941
0	2409	1192.435522933079	0.45497699941302
0	2411	1193.233952063096	0.79842913001698
0	2413	1194.432340259251	1.1983881961551
0	2415	1195.74275303093	1.310412771679
0	2417	1195.850206635209	0.10745360427882
0	2419	1197.822933749531	1.972727114322
0	2421	1199.447544159428	1.6246104098971
0	2424	1200.274703300072	0.82715914064397
0	2425	1200.3383801072	0.063676807128104
0	2427	1200.554477503168	0.21609739596806
0	2429	1202.503411532932	1.9489340297639
0	2431	1204.23764977647	1.7342382435379
0	2433	1205.579808920744	1.3421591442741
0	2435	1207.24854673442	1.668737813676
0	2437	1207.724981188964	0.47643445454401
0	2439	1209.158858705238	1.4338775162739
0	2441	1210.338274727119	1.179416021881
0	2443	1210.783354487021	0.445079759902
0	2446	1211.238879158125	0.45552467110406
0	2447	1211.242026396061	0.0031472379359911
0	2449	1212.137654380324	0.895627984263
0	2451	1212.957185885702	0.81953150537811
0	2454	1214.823196769463	1.866010883761
0	2455	1214.8681201346	0.044923365137038
0	2457	1215.895117992805	1.0269978582048
0	2459	1216.648120850014	0.75300285720914
0	2461	1218.367141956953	1.719021106939
0	2463	1219.954886285886	1.587744328933
0	2465	1221.173822658071	1.218936372185
0	2467	1221.837429965158	0.66360730708698
0	2469	1223.085440183883	1.2480102187251
0	2471	1224.393186288457	1.3077461045739
0	2473	1225.681965858847	1.28877957039
0	2476	1226.20020540193	0.51823954308293
0	2477	1226.252206001868	0.052000599938083
0	2479	1228.226289151662	1.9740831497941
0	2481	1228.641787732639	0.41549858097687
0	2483	1229.926438214543	1.284650481904
0	2485	1231.04708757891	1.120649364367
0	2487	1231.800954502303	0.75386692339316
0	2489	1232.042335963216	0.24138146091286
0	2491	1232.940549530846	0.89821356763014
0	2493	1233.215980696446	0.27543116559991
0	2495	1234.38758093448	1.171600238034
0	2497	1235.472781577221	1.085200642741
0	2499	1236.439984123746	0.96720254652496
0	2501	1238.213183575728	1.773199451982
0	2503	1238.376373031671	0.16318945594298
0	2505	1239.101559062389	0.72518603071808
0	2507	1239.303177341813	0.20161827942388
0	2509	1239.90159962633	0.59842228451703
0	2511	1241.58493549855	1.6833358722201
0	2513	1243.410939892799	1.8260043942489
0	2515	1245.066794036772	1.6558541439731
0	2517	1247.007391797235	1.9405977604629
0	2519	1248.633951905797	1.626560108562
0	2521	1250.229696511716	1.595744605919
0	2523	1251.909288196169	1.679591684453
0	2525	1252.806728797727	0.89744060155795
0	2527	1254.09091918579	1.2841903880631
0	2529	1255.478771361598	1.3878521758079
0	2531	1257.110290158444	1.6315187968462
0	2533	1258.046708749947	0.93641859150284
0	2535	1258.43397614505	0.38726739510298
0	2537	1259.237085641325	0.80310949627506
0	2539	1261.098389527659	1.8613038863341
0	2541	1262.03280714467	0.93441761701092
0	2543	1262.789696249866	0.75688910519602
0	2545	1263.824887272208	1.0351910223419
0	2547	1264.280399769063	0.45551249685514
0	2549	1266.07893440908	1.7985346400169
0	2551	1268.050629178405	1.971694769325
0	2553	1268.324617216834	0.27398803842902
0	2555	1269.241579093936	0.91696187710204
0	2557	1270.619847555321	1.378268461385
0	2559	1271.177878051932	0.55803049661085
0	2561	1271.996434597615	0.81855654568312
0	2564	1273.476297899224	1.4798633016089
0	2565	1273.538808035768	0.062510136544006
0	2567	1274.146672930955	0.60786489518705
0	2569	1274.531966343157	0.38529341220192
0	2571	1276.158345217277	1.6263788741201
0	2573	1276.708082560166	0.5497373428891
0	2575	1278.143604500604	1.4355219404379
0	2577	1278.96085743962	0.81725293901604
0	2579	1280.531003485067	1.570146045447
0	2581	1281.975589319438	1.4445858343711
0	2583	1283.129707596177	1.1541182767389
0	2585	1284.395584742109	1.2658771459319
0	2588	1285.992776421213	1.5971916791041
0	2589	1285.993327119702	0.00055069848895073
0	2591	1287.248916627807	1.255589508105
0	2593	1287.941779346496	0.69286271868896
0	2595	1288.885492347911	0.94371300141506
0	2597	1289.869907129813	0.98441478190193
0	2599	1290.929146559728	1.0592394299151
0	2601	1291.566245140624	0.63709858089601
0	2603	1293.282094251348	1.7158491107239
0	2605	1293.558098195233	0.27600394388514
0	2607	1294.356383066177	0.79828487094392
0	2609	1295.130209023977	0.7738259578
0	2611	1296.823081771613	1.6928727476361
0	2613	1296.935351287768	0.11226951615504
0	2615	1297.849109309042	0.91375802127391
0	2617	1299.380172853388	1.5310635443459
0	2619	1299.965162669611	0.58498981622301
0	2621	1301.889003926224	1.9238412566131
0	2623	1303.889003818191	1.999999891967
0	2625	1305.887188100523	1.998184282332
0	2627	1307.370421251308	1.4832331507851
0	2629	1308.06998650206	0.6995652507519
0	2631	1309.66315589582	1.59316939376
0	2633	1310.061156816197	0.39800092037694
0	2635	1311.26262558808	1.2014687718831
0	2637	1312.348274626319	1.0856490382389
0	2639	1312.851660312869	0.50338568655002
0	2641	1313.254894158775	0.40323384590602
0	2643	1314.406142300503	1.151248141728
0	2645	1315.433660322856	1.027518022353
0	2647	1316.929062003091	1.4954016802351
0	2649	1318.145101705022	1.2160397019309
0	2651	1320.124372062651	1.979270357629
0	2653	1321.721272732321	1.59690066967
0	2655	1322.830827878563	1.109555146242
0	2657	1323.124170772643	0.29334289408007
0	2659	1323.338191571657	0.21402079901395
0	2661	1324.385760596521	1.0475690248638
0	2663	1324.878361492215	0.49260089569407
0	2665	1326.021615418004	1.1432539257889
0	2667	1326.690346150369	0.66873073236502
0	2669	1328.047765007585	1.3574188572161
0	2671	1328.18649823073	0.13873322314498
0	2673	1329.875779632741	1.6892814020109
0	2675	1331.62830323275	1.752523600009
0	2677	1332.292448576996	0.66414534424598
0	2679	1332.583249323662	0.29080074666604
0	2681	1334.071398534234	1.4881492105721
0	2683	1335.395180623085	1.323782088851
0	2685	1336.200747949484	0.80556732639889
0	2687	1337.370802742455	1.1700547929711
0	2689	1338.481708212368	1.110905469913
0	2691	1339.469941032192	0.98823281982413
0	2693	1340.698943808389	1.2290027761969
0	2695	1342.548603346216	1.8496595378269
0	2697	1343.776455596306	1.2278522500901
0	2700	1344.289222855576	0.51276725926982
0	2701	1344.368549411677	0.079326556101023
0	2703	1345.609977803332	1.2414283916551
0	2706	1346.296956344035	0.68697854070297
0	2707	1346.345289942358	0.048333598323097
0	2709	1346.688076962426	0.34278702006804
0	2711	1347.909523246156	1.2214462837298
0	2713	1348.757213903332	0.84769065717614
0	2715	1349.894089059243	1.136875155911
0	2717	1351.354834459741	1.4607454004979
0	2719	1352.102780630248	0.74794617050702
0	2721	1352.834068340957	0.73128771070901
0	2723	1353.586622229904	0.75255388894698
0	2725	1353.75983376263	0.1732115327261
0	2727	1354.926064281544	1.1662305189141
0	2729	1355.762395668053	0.83633138650885
0	2731	1355.984008717663	0.22161304961014
0	2733	1356.634533518609	0.65052480094596
0	2735	1358.004863022217	1.370329503608
0	2737	1359.13283016338	1.127967141163
0	2739	1360.87657168301	1.74374151963
0	2741	1361.940292101646	1.063720418636
0	2743	1363.889368110605	1.9490760089589
0	2745	1364.009850688603	0.12048257799802
0	2747	1364.960539107978	0.95068841937496
0	2749	1365.180803542895	0.220264434917
0	2751	1367.165161193279	1.984357650384
0	2753	1368.264191205124	1.0990300118451
0	2755	1369.661600289096	1.397409083972
0	2757	1369.916074613389	0.25447432429291
0	2759	1370.866043001204	0.94996838781503
0	2761	1370.984737010519	0.11869400931505
0	2763	1371.874951561242	0.89021455072293
0	2765	1373.71090556979	1.835954008548
0	2767	1374.589927228761	0.87902165897094
0	2769	1376.306949561923	1.717022333162
0	2771	1378.301303022068	1.994353460145
0	2773	1379.399907684923	1.098604662855
0	2775	1379.648476296258	0.24856861133503
0	2777	1381.34112700821	1.692650711952
0	2779	1381.721642786824	0.38051577861415
0	2781	1383.050333959856	1.328691173032
0	2783	1384.362879112848	1.312545152992
0	2785	1386.309265453829	1.946386340981
0	2787	1387.224498314738	0.91523286090887
0	2789	1387.543191619321	0.31869330458312
0	2791	1387.821561742807	0.27837012348596
0	2793	1388.388227175487	0.56666543267988
0	2795	1390.334154224495	1.9459270490081
0	2797	1391.530066904709	1.195912680214
0	2799	1393.234483265277	1.7044163605681
0	2801	1393.360255339201	0.12577207392383
0	2803	1395.211501771533	1.8512464323321
0	2805	1397.110289974971	1.898788203438
0	2807	1398.043625160457	0.93333518548593
0	2809	1398.608087616641	0.56446245618395
0	2811	1399.52858869648	0.92050107983914
0	2813	1400.390237549818	0.86164885333801
0	2815	1402.122515604273	1.732278054455
0	2817	1402.519776836596	0.39726123232299
0	2819	1403.289308483698	0.76953164710199
0	2821	1404.807701322943	1.5183928392448
0	2823	1406.436150509453	1.6284491865101
0	2825	1407.781628177717	1.345477668264
0	2827	1409.224798685828	1.4431705081108
0	2829	1410.591528499161	1.366729813333
0	2831	1411.219501187048	0.62797268788722
0	2833	1411.556466504111	0.33696531706278
0	2835	1412.932550390071	1.37608388596
0	2837	1414.774421725169	1.8418713350982
0	2840	1415.105950709334	0.33152898416483
0	2841	1415.113587563763	0.0076368544291654
0	2843	1415.466199945728	0.35261238196495
0	2845	1415.822503634964	0.35630368923603
0	2847	1416.21860862379	0.39610498882598
0	2849	1417.555155830568	1.3365472067781
0	2851	1418.904060154029	1.3489043234608
0	2853	1419.939024562305	1.034964408276
0	2855	1420.58583445906	0.64680989675503
0	2857	1421.519769227225	0.93393476816505
0	2859	1422.16141778363	0.64164855640502
0	2861	1422.348705275463	0.18728749183288
0	2863	1424.089580520414	1.7408752449512
0	2865	1424.979822416631	0.89024189621682
0	2867	1425.275372133569	0.29554971693801
0	2869	1426.579464711835	1.3040925782661
0	2871	1428.463427626129	1.883962914294
0	2873	1430.22812815891	1.764700532781
0	2875	1431.549982613991	1.3218544550809
0	2877	1431.957809156104	0.40782654211307
0	2880	1432.298502447539	0.34069329143495
0	2881	1432.330651601316	0.032149153777027
0	2883	1432.661479123562	0.33082752224595
0	2885	1432.879645505716	0.21816638215387
0	2887	1433.602030361204	0.72238485548814
0	2889	1434.724296540677	1.1222661794729
0	2891	1436.651974947813	1.927678407136
0	2894	1437.142963685945	0.49098873813205
0	2896	1437.190685473323	0.047721787377895
0	2897	1437.250765936418	0.060080463095119
0	2899	1439.023109168608	1.77234323219
0	2901	1440.795812592598	1.7727034239899
0	2903	1442.62225959697	1.8264470043721
0	2905	1443.717062069289	1.0948024723189
0	2907	1444.062214332979	0.34515226369012
0	2909	1445.036310176234	0.97409584325487
0	2911	1446.665147756854	1.62883758062
0	2913	1448.538365233327	1.873217476473
0	2915	1449.704492312105	1.1661270787781
0	2917	1450.802305336802	1.097813024697
0	2919	1451.745811416036	0.94350607923411
0	2921	1453.252485101081	1.5066736850449
0	2923	1453.917109657358	0.66462455627698
0	2925	1454.262027008899	0.34491735154097
0	2927	1455.287954351851	1.0259273429519
0	2929	1456.048807349397	0.76085299754618
0	2931	1457.705137097458	1.6563297480609
0	2934	1459.639212753774	1.9340756563161
0	2935	1459.648768461464	0.0095557076899695
0	2937	1460.25154760896	0.60277914749599
0	2939	1461.160679572189	0.9091319632289
0	2941	1462.941585567605	1.7809059954161
0	2943	1464.628650523402	1.687064955797
0	2945	1465.129362597043	0.5007120736409
0	2947	1466.597184285186	1.467821688143
0	2949	1468.276296912208	1.6791126270221
0	2951	1469.122219263485	0.84592235127707
0	2953	1470.539177182699	1.4169579192139
0	2955	1471.350925418563	0.81174823586412
0	2957	1472.403525592333	1.0526001737699
0	2959	1473.454646141332	1.0511205489991
0	2961	1473.637713159583	0.18306701825099
0	2963	1474.445088911395	0.80737575181206
0	2965	1476.009349610978	1.564260699583
0	2967	1476.538927508155	0.52957789717698
0	2969	1477.154645359999	0.61571785184401
0	2971	1477.524581294603	0.36993593460397
0	2973	1479.037834185976	1.513252891373
0	2975	1480.279179499932	1.2413453139561
0	2977	1481.5698711538	1.290691653868
0	2979	1482.22449770612	0.65462655232
0	2981	1482.5329625547	0.30846484857989
0	2983	1482.90167263969	0.36871008498997
0	2985	1483.81207106658	0.9103984268902
0	2987	1484.878431800548	1.0663607339679
0	2989	1485.203287607005	0.32485580645698
0	2991	1487.054826734465	1.85153912746
0	2994	1487.872941946869	0.81811521240388
0	2995	1487.935316824641	0.062374877772072
0	2997	1488.26988754652	0.33457072187912
0	2999	1489.400010165796	1.1301226192759
0	3001	1491.370872337395	1.970862171599
0	3003	1491.651390403664	0.280518066269
0	3005	1492.318530180957	0.66713977729296
0	3007	1492.936767144882	0.61823696392503
0	3009	1493.645419833402	0.70865268852003
0	3011	1493.971155794641	0.32573596123893
0	3013	1494.615456333988	0.64430053934711
0	3015	1495.374621131484	0.75916479749594
0	3017	1496.65737264107	1.282751509586
0	3020	1497.861994249069	1.2046216079989
0	3021	1497.937359882808	0.075365633739011
0	3023	1498.60756613188	0.67020624907218
0	3025	1498.763994290236	0.15642815835599
0	3027	1499.852051780808	1.0880574905718
0	3029	1500.834295830464	0.98224404965617
0	3031	1501.410038404209	0.57574257374495
0	3033	1501.915475343632	0.50543693942291
0	3035	1502.794116221124	0.87864087749199
0	3037	1504.11134423073	1.3172280096062
0	3040	1504.762501684689	0.65115745395883
0	3041	1504.765830380584	0.0033286958951066
0	3043	1506.711222285121	1.945391904537
0	3045	1506.912961843234	0.20173955811288
0	3047	1507.549715043153	0.63675319991899
0	3049	1509.460746074161	1.9110310310082
0	3051	1510.159284231644	0.69853815748297
0	3053	1510.490097046444	0.33081281479986
0	3055	1512.461075381908	1.970978335464
0	3058	1512.693959523633	0.23288414172498
0	3059	1512.777729495177	0.083769971544143
0	3061	1514.699641232091	1.9219117369139
0	3063	1516.270203544271	1.5705623121801
0	3065	1516.710984345243	0.44078080097188
0	3067	1516.913906290008	0.20292194476519
0	3069	1517.423031953213	0.50912566320494
0	3071	1518.298053433644	0.87502148043086
0	3073	1518.784075042916	0.48602160927203
0	3075	1519.349262075514	0.56518703259803
0	3077	1520.447718944927	1.098456869413
0	3079	1522.212323175229	1.764604230302
0	3081	1523.915621856506	1.7032986812771
0	3083	1525.256558086695	1.3409362301888
0	3085	1526.371778867699	1.1152207810042
0	3087	1527.887445196775	1.5156663290759
0	3089	1529.691437983128	1.8039927863531
0	3091	1531.398198225573	1.7067602424449
0	3093	1532.917592995614	1.5193947700409
0	3095	1533.385493071782	0.46790007616801
0	3097	1535.382073220827	1.996580149045
0	3099	1535.90463822828	0.52256500745307
0	3101	1536.654718492803	0.75008026452292
0	3103	1537.25372432635	0.59900583354715
0	3105	1538.74476875245	1.4910444261
0	3107	1540.728438213194	1.9836694607441
0	3109	1542.261064929396	1.532626716202
0	3111	1543.118284143415	0.85721921401887
0	3113	1544.401614160782	1.283330017367
0	3115	1545.329216049058	0.92760188827606
0	3117	1545.534152311374	0.20493626231587
0	3119	1545.897913049246	0.3637607378721
0	3121	1547.624634457896	1.7267214086501
0	3123	1548.631349633129	1.006715175233
0	3125	1550.493299777236	1.8619501441069
0	3127	1552.289371790817	1.7960720135809
0	3129	1552.871704050132	0.58233225931508
0	3131	1554.129986361047	1.2582823109151
0	3133	1556.080785914679	1.9507995536319
0	3135	1557.168883810681	1.088097896002
0	3137	1558.830221920978	1.661338110297
0	3139	1558.939841677258	0.10961975628015
0	3141	1559.319085479714	0.3792438024559
0	3143	1561.269673354901	1.950587875187
0	3145	1562.800091618431	1.53041826353
0	3148	1564.53984676079	1.7397551423589
0	3149	1564.604524387646	0.06467762685611
0	3151	1565.641398956219	1.036874568573
0	3153	1566.39227295717	0.75087400095094
0	3155	1568.331606942701	1.939333985531
0	3157	1568.717901768815	0.38629482611395
0	3159	1569.175044262715	0.45714249389994
0	3161	1570.368939247472	1.193894984757
0	3163	1572.161948050766	1.793008803294
0	3165	1573.260905005943	1.0989569551771
0	3167	1573.430450669543	0.16954566360005
0	3169	1574.98441878877	1.553968119227
0	3171	1576.526598642212	1.5421798534419
0	3173	1577.943395445415	1.4167968032032
0	3175	1578.047266875734	0.10387143031903
0	3177	1579.814396242843	1.767129367109
0	3179	1579.957669243515	0.14327300067202
0	3181	1581.946991539854	1.989322296339
0	3183	1582.486826105588	0.53983456573405
0	3185	1583.486372403879	0.99954629829085
0	3187	1584.861007786143	1.3746353822639
0	3189	1586.357877500839	1.496869714696
0	3191	1588.24717240265	1.8892949018111
0	3193	1589.626587143311	1.3794147406609
0	3195	1591.450133430833	1.823546287522
0	3197	1591.792587804829	0.34245437399613
0	3199	1593.42325155535	1.6306637505209
0	3201	1593.988906565434	0.56565501008413
0	3203	1594.952661054969	0.96375448953495
0	3205	1596.774366675622	1.8217056206529
0	3207	1598.180732988222	1.4063663126001
0	3209	1598.979348854935	0.79861586671291
0	3211	1599.316220693289	0.336871838354
0	3213	1601.121207908635	1.804987215346
0	3215	1601.541336231968	0.42012832333307
0	3217	1602.638066496382	1.096730264414
0	3219	1603.383620509907	0.74555401352495
0	3221	1603.909925823374	0.52630531346699
0	3223	1605.523329266441	1.613403443067
0	3225	1605.994996894465	0.47166762802408
0	3227	1607.312821087424	1.3178241929591
0	3229	1607.98403214601	0.67121105858587
0	3231	1609.028293808786	1.0442616627761
0	3233	1609.934060081194	0.90576627240807
0	3235	1611.147800439888	1.2137403586939
0	3238	1612.482009015587	1.334208575699
0	3239	1612.5255407827	0.043531767112881
0	3241	1614.163950649483	1.6384098667831
0	3243	1614.918581671826	0.75463102234289
0	3245	1616.002174186838	1.083592515012
0	3247	1617.941573994524	1.939399807686
0	3249	1619.434141768196	1.4925677736721
0	3251	1621.020713874931	1.586572106735
0	3253	1622.538111772024	1.5173978970929
0	3255	1623.444568218721	0.90645644669689
0	3257	1624.258067858842	0.81349964012111
0	3259	1624.746519370669	0.48845151182695
0	3261	1626.151078639939	1.4045592692701
0	3263	1626.578717264002	0.42763862406309
0	3265	1627.901071884009	1.322354620007
0	3267	1628.715170342194	0.81409845818484
0	3269	1629.267957055917	0.55278671372298
0	3271	1629.954254606103	0.68629755018605
0	3273	1630.557180577534	0.60292597143098
0	3275	1631.933982420999	1.376801843465
0	3277	1633.842565533017	1.9085831120181
0	3279	1635.39892922718	1.5563636941629
0	3282	1637.203537028228	1.804607801048
0	3283	1637.246849248151	0.043312219923109
0	3285	1639.195329494716	1.9484802465649
0	3287	1639.302833505898	0.10750401118207
0	3289	1640.122749439814	0.81991593391604
0	3291	1640.44985077117	0.32710133135606
0	3294	1642.041926879771	1.5920761086008
0	3295	1642.065084136437	0.023157256666082
0	3297	1643.269096924899	1.204012788462
0	3299	1645.112032597787	1.842935672888
0	3301	1645.331886827019	0.21985422923194
0	3303	1646.421917533083	1.090030706064
0	3305	1646.567994348354	0.14607681527104
0	3307	1647.681028605606	1.1130342572519
0	3309	1648.447790244187	0.7667616385811
0	3311	1649.410649878014	0.96285963382707
0	3313	1650.19251560926	0.78186573124594
0	3315	1651.00986065701	0.81734504775
0	3317	1652.12807819471	1.1182175377
0	3319	1654.01023432365	1.8821561289399
0	3321	1655.408293422351	1.398059098701
0	3324	1656.587565290399	1.1792718680481
0	3325	1656.609851571399	0.022286281000106
0	3327	1657.175376338815	0.56552476741581
0	3329	1657.950142304705	0.77476596589008
0	3331	1659.441731010619	1.491588705914
0	3333	1660.573111305595	1.131380294976
0	3335	1661.681728975083	1.108617669488
0	3337	1662.218900054179	0.53717107909597
0	3339	1662.453226420623	0.23432636644407
0	3341	1662.776467249474	0.32324082885089
0	3343	1663.485077746288	0.70861049681412
0	3345	1665.101697694407	1.616619948119
0	3347	1665.633165734033	0.53146803962591
0	3349	1666.016507728348	0.38334199431506
0	3351	1666.845406181888	0.82889845353998
0	3353	1668.141714822882	1.2963086409941
0	3355	1669.201044013667	1.0593291907849
0	3357	1669.346753533009	0.14570951934206
0	3359	1670.286645120458	0.93989158744898
0	3361	1671.044555378948	0.75791025849003
0	3363	1671.242269813977	0.19771443502896
0	3365	1672.228779341516	0.98650952753906
0	3367	1672.494408691847	0.26562935033098
0	3369	1672.926899712348	0.43249102050095
0	3371	1673.803481270783	0.87658155843496
0	3373	1674.509733880491	0.70625260970814
0	3375	1676.497345250646	1.987611370155
0	3377	1678.281643452568	1.784298201922
0	3379	1678.981523163456	0.6998797108879
0	3381	1679.859824065367	0.87830090191096
0	3383	1681.463082489621	1.6032584242541
0	3385	1683.427418923052	1.9643364334311
0	3387	1684.029855602748	0.60243667969598
0	3389	1685.183131252348	1.1532756495999
0	3391	1686.28697408501	1.1038428326619
0	3393	1686.57346263679	0.28648855178017
0	3395	1687.586552401194	1.013089764404
0	3397	1688.586222733957	0.99967033276289
0	3399	1690.0455054849	1.459282750943
0	3401	1690.210700589643	0.16519510474313
0	3403	1690.644826004895	0.43412541525186
0	3405	1690.990680139355	0.34585413446007
0	3407	1691.761118007094	0.77043786773902
0	3409	1692.510361103891	0.74924309679704
0	3411	1693.039088977366	0.52872787347496
0	3413	1693.368458466623	0.32936948925703
0	3415	1695.081464407851	1.7130059412279
0	3417	1695.572318619231	0.49085421138011
0	3419	1697.359049285777	1.786730666546
0	3421	1698.941361917003	1.5823126312259
0	3423	1700.869754937264	1.928393020261
0	3425	1701.371246468296	0.50149153103212
0	3427	1701.939408521453	0.56816205315704
0	3429	1703.039035926439	1.099627404986
0	3431	1704.476831522374	1.4377955959349
0	3433	1705.507412409494	1.0305808871201
0	3435	1706.480382227876	0.9729698183819
0	3437	1707.184119774894	0.70373754701814
0	3439	1708.901072498213	1.7169527233189
0	3442	1709.725493323244	0.82442082503098
0	3443	1709.766299616751	0.040806293507103
0	3445	1711.597674581349	1.8313749645979
0	3447	1713.516704584561	1.9190300032121
0	3449	1714.653968567647	1.1372639830859
0	3451	1716.649732299765	1.9957637321181
0	3453	1717.450778014084	0.80104571431889
0	3455	1718.626098577538	1.1753205634541
0	3457	1720.23880854664	1.6127099691021
0	3460	1721.055259240665	0.81645069402498
0	3461	1721.14207371502	0.086814474354924
0	3463	1722.232944197444	1.090870482424
0	3465	1722.493142293379	0.26019809593504
0	3467	1723.642540665491	1.149398372112
0	3469	1725.580980760164	1.9384400946731
0	3471	1726.943651933976	1.362671173812
0	3473	1727.358070195667	0.4144182616908
0	3475	1728.48579443952	1.1277242438532
0	3477	1730.147160878787	1.6613664392669
0	3479	1730.732905635334	0.585744756547
0	3481	1731.345028915451	0.61212328011698
0	3483	1733.300997847679	1.955968932228
0	3485	1735.270841806169	1.9698439584902
0	3487	1736.438252155255	1.1674103490859
0	3489	1737.103989237815	0.66573708255987
0	3491	1738.147135830866	1.043146593051
0	3493	1738.311925232869	0.16478940200318
0	3495	1739.927404694539	1.61547946167
0	3497	1741.290716976842	1.363312282303
0	3499	1742.480245643833	1.1895286669908
0	3501	1742.888551754673	0.40830611084016
0	3503	1743.289356649836	0.40080489516299
0	3505	1743.617229653658	0.32787300382188
0	3507	1744.178804885993	0.56157523233514
0	3509	1744.57373474317	0.39492985717698
0	3511	1746.159844319724	1.586109576554
0	3513	1747.903497464292	1.743653144568
0	3515	1749.481898219397	1.5784007551049
0	3517	1749.663389265694	0.18149104629697
0	3519	1749.983404381506	0.32001511581211
0	3521	1750.477455840981	0.49405145947503
0	3523	1752.000335244775	1.5228794037939
0	3525	1753.034474804861	1.034139560086
0	3527	1753.818061166671	0.78358636180997
0	3529	1755.5540441136	1.735982946929
0	3531	1756.219433142288	0.66538902868797
0	3533	1757.412838296074	1.193405153786
0	3535	1758.973257969901	1.560419673827
0	3537	1760.946715975935	1.973458006034
0	3539	1762.855423395303	1.9087074193681
0	3541	1764.501020710531	1.6455973152281
0	3543	1766.055097753521	1.55407704299
0	3545	1767.427959293174	1.3728615396528
0	3547	1769.111856240679	1.683896947505
0	3549	1770.36785295561	1.2559967149311
0	3551	1771.904640800589	1.536787844979
0	3553	1772.697951356588	0.79331055599891
0	3555	1773.868466029196	1.1705146726081
0	3557	1774.708568557809	0.84010252861299
0	3559	1776.311766958323	1.603198400514
0	3561	1777.267284394214	0.9555174358909
0	3563	1778.648829419781	1.381545025567
0	3565	1780.276074129598	1.627244709817
0	3567	1781.377912029647	1.1018379000491
0	3569	1781.967498152814	0.58958612316701
0	3571	1783.141470226372	1.1739720735579
0	3573	1784.090110511874	0.94864028550205
0	3575	1785.887388936505	1.797278424631
0	3577	1786.745871701939	0.85848276543402
0	3579	1787.26571034451	0.5198386425709
0	3582	1788.193776036085	0.92806569157506
0	3583	1788.193854344481	7.8308396041393e-005
0	3585	1789.509983557362	1.3161292128809
0	3587	1789.693664441056	0.18368088369402
0	3589	1790.818276691014	1.1246122499581
0	3591	1792.176361729787	1.358085038773
0	3593	1793.511608384636	1.335246654849
0	3595	1795.002136434278	1.4905280496419
0	3597	1796.307066759552	1.3049303252742
0	3599	1798.271043637277	1.9639768777249
0	3601	1798.830427557	0.5593839197229
0	3604	1800.395966342218	1.565538785218
0	3605	1800.406329501924	0.010363159706003
0	3607	1800.579954681571	0.17362517964716
0	3609	1800.698349013633	0.11839433206183
0	3611	1802.551887974715	1.853538961082
0	3613	1802.981206872341	0.42931889762599
0	3615	1804.543919273289	1.5627124009482
0	3617	1805.051242006816	0.50732273352696
0	3619	1805.624424390635	0.5731823838189
0	3621	1807.100749238291	1.4763248476561
0	3623	1807.692463784651	0.59171454635998
0	3625	1808.638844456205	0.94638067155392
0	3627	1810.458791271381	1.8199468151761
0	3629	1812.304913932915	1.8461226615341
0	3631	1814.088486331872	1.7835723989569
0	3633	1814.589795596557	0.50130926468501
0	3635	1816.094607152405	1.5048115558479
0	3637	1817.462426288119	1.3678191357139
0	3639	1818.398640237319	0.93621394920001
0	3641	1819.346484439459	0.94784420214
0	3643	1819.763989811038	0.41750537157918
0	3645	1820.7767699349	1.0127801238618
0	3647	1822.572311681347	1.795541746447
0	3649	1824.242444210184	1.670132528837
0	3651	1826.159856371973	1.9174121617889
0	3653	1828.106059553468	1.9462031814951
0	3655	1829.942930940829	1.836871387361
0	3657	1830.240338317547	0.29740737671796
0	3659	1830.766118824224	0.52578050667694
0	3661	1831.559094542749	0.79297571852499
0	3663	1833.101995788413	1.5429012456641
0	3665	1834.643231668194	1.541235879781
0	3667	1836.194663152506	1.5514314843119
0	3669	1837.1036199768	0.90895682429414
0	3671	1837.940965882792	0.83734590599192
0	3673	1839.21360788862	1.2726420058279
0	3675	1840.507799832704	1.2941919440841
0	3677	1841.991804056183	1.4840042234789
0	3679	1843.650788067063	1.65898401088
0	3681	1844.195058932936	0.54427086587316
0	3683	1845.755501654203	1.560442721267
0	3685	1846.116317980363	0.36081632615992
0	3687	1846.356311757601	0.23999377723794
0	3689	1847.931725793804	1.575414036203
0	3691	1849.915432255993	1.983706462189
0	3693	1850.069942273549	0.15451001755605
0	3695	1850.919807343558	0.84986507000895
0	3697	1852.602038978265	1.682231634707
0	3699	1853.869123503822	1.267084525557
0	3701	1855.758744537104	1.8896210332819
0	3703	1856.619450905035	0.86070636793102
0	3705	1858.511376716752	1.8919258117171
0	3707	1860.108494248609	1.5971175318568
0	3709	1860.86285216992	0.75435792131111
0	3711	1861.356435641664	0.49358347174393
0	3714	1863.013845245212	1.6574096035481
0	3715	1863.097052075797	0.083206830584913
0	3717	1863.554253717994	0.45720164219711
0	3719	1863.742254126083	0.18800040808901
0	3722	1865.465112874353	1.72285874827
0	3723	1865.552095042651	0.086982168297936
0	3725	1867.461397622779	1.909302580128
0	3727	1869.109861835741	1.6484642129619
0	3729	1870.847889083219	1.7380272474779
0	3731	1871.87183745045	1.023948367231
0	3733	1873.372045494642	1.500208044192
0	3735	1875.368644228229	1.996598733587
0	3737	1876.203559632826	0.83491540459704
0	3739	1876.626764691113	0.42320505828707
0	3741	1877.434179328436	0.80741463732284
0	3743	1877.651988819397	0.21780949096114
0	3745	1878.376103399814	0.72411458041688
0	3747	1878.569856470102	0.19375307028804
0	3749	1878.977708804262	0.40785233416
0	3751	1879.751889036238	0.77418023197606
0	3753	1881.399047863706	1.647158827468
0	3755	1883.197461124452	1.798413260746
0	3757	1885.129134482615	1.9316733581629
0	3759	1886.763265123331	1.634130640716
0	3761	1887.596943643072	0.83367851974094
0	3763	1889.231824938166	1.6348812950941
0	3765	1890.681751578748	1.4499266405819
0	3767	1891.598799844401	0.91704826565297
0	3769	1892.429000678056	0.830200833655
0	3771	1893.614411918582	1.185411240526
0	3773	1894.82113144244	1.2067195238581
0	3775	1896.156168918514	1.3350374760739
0	3777	1898.131029285867	1.9748603673531
0	3780	1899.60922339572	1.4781941098529
0	3781	1899.617627686959	0.0084042912390032
0	3783	1900.868550537875	1.2509228509159
0	3785	1901.128905877382	0.26035533950721
0	3787	1902.921096968279	1.7921910908969
0	3789	1904.276761671043	1.355664702764
0	3791	1904.933421019285	0.65665934824187
0	3793	1905.407086927485	0.47366590820002
0	3795	1906.310006037816	0.90291911033114
0	3797	1907.671493373975	1.3614873361589
0	3799	1908.189152205768	0.51765883179291
0	3801	1908.481138146092	0.29198594032414
0	3803	1909.888837173846	1.407699027754
0	3805	1911.086396639127	1.1975594652808
0	3807	1912.468329608976	1.381932969849
0	3809	1912.615753854298	0.1474242453221
0	3811	1914.375044978716	1.759291124418
0	3813	1914.780973072845	0.40592809412897
0	3815	1915.214451099698	0.43347802685298
0	3817	1916.679648413026	1.465197313328
0	3819	1918.250893515038	1.571245102012
0	3821	1920.167323033721	1.9164295186831
0	3823	1921.598243540284	1.4309205065629
0	3825	1923.079197336809	1.480953796525
0	3827	1923.469655532461	0.39045819565217
0	3830	1923.900549857218	0.43089432475699
0	3831	1923.941466042132	0.04091618491384
0	3833	1925.619785888262	1.6783198461301
0	3835	1927.141439797275	1.5216539090129
0	3837	1927.578688586253	0.4372487889782
0	3839	1928.419084933169	0.8403963469159
0	3841	1928.960487545303	0.54140261213411
0	3843	1930.314189674798	1.3537021294949
0	3845	1931.985880100481	1.671690425683
0	3847	1932.086864549095	0.1009844486141
0	3849	1933.332492405557	1.2456278564619
0	3851	1934.599875963891	1.2673835583341
0	3853	1935.51534089176	0.91546492786892
0	3855	1935.73438358047	0.21904268871003
0	3858	1937.184852732285	1.450469151815
0	3859	1937.219887281724	0.035034549438933
0	3861	1938.045559700919	0.82567241919514
0	3863	1939.121909109786	1.0763494088669
0	3865	1939.32642393746	0.20451482767407
0	3867	1940.607132662689	1.2807087252288
0	3870	1941.478677590453	0.87154492776403
0	3871	1941.534278527935	0.055600937482041
0	3873	1942.019234784275	0.48495625633996
0	3875	1942.67903508682	0.65980030254514
0	3877	1943.942719952496	1.2636848656759
0	3879	1944.69425736432	0.75153741182407
0	3881	1945.783537884462	1.089280520142
0	3883	1947.321239906367	1.537702021905
0	3885	1947.479122065085	0.15788215871794
0	3888	1949.004563638797	1.525441573712
0	3889	1949.101093012741	0.096529373943895
0	3891	1949.470280890426	0.36918787768514
0	3893	1950.410941148688	0.94066025826191
0	3895	1952.087901754666	1.6769606059781
0	3897	1952.764806419356	0.6769046646898
0	3899	1953.501505865804	0.73669944644803
0	3901	1955.209102309261	1.7075964434571
0	3903	1956.782527496792	1.573425187531
0	3905	1957.339654324589	0.55712682779699
0	3907	1958.970249116261	1.6305947916719
0	3909	1960.376912755456	1.4066636391951
0	3911	1962.172696699789	1.7957839443329
0	3913	1963.913449102361	1.7407524025721
0	3915	1964.739079135203	0.8256300328419
0	3917	1965.1030411086	0.36396197339695
0	3919	1966.21192799271	1.10888688411
0	3921	1967.273789237235	1.0618612445251
0	3923	1967.975725964952	0.70193672771711
0	3925	1969.426308697143	1.4505827321909
0	3927	1971.370288625387	1.9439799282441
0	3929	1971.840942620546	0.47065399515895
0	3931	1972.122639264358	0.28169664381198
0	3933	1972.598131804395	0.47549254003707
0	3935	1974.201252206643	1.6031204022479
0	3937	1975.845852791581	1.644600584938
0	3939	1976.647883836803	0.80203104522207
0	3941	1978.383660878555	1.735777041752
0	3944	1979.588401600848	1.2047407222929
0	3945	1979.665721185671	0.077319584823044
0	3947	1981.175983304095	1.510262118424
0	3949	1982.15140766317	0.97542435907508
0	3951	1984.108610644376	1.9572029812059
0	3953	1984.81911577727	0.71050513289401
0	3955	1986.278884331214	1.4597685539441
0	3957	1986.60897047133	0.33008614011601
0	3959	1988.366727397337	1.757756926007
0	3961	1988.987382788991	0.62065539165405
0	3963	1990.342550322893	1.355167533902
0	3965	1990.643292614878	0.30074229198499
0	3967	1991.218994013921	0.57570139904306
0	3970	1993.032407730687	1.813413716766
[...]
0	87929	43931.947754976604	1.594298218195
0	87931	43933.317908062571	1.3701530859616
0	87933	43933.480823904323	0.16291584174905
0	87935	43933.607376232849	0.12655232852558
0	87937	43934.572361774366	0.96498554151913
0	87939	43935.084358056869	0.5119962825047
0	87941	43936.20587808491	1.1215200280421
0	87943	43937.592989361944	1.3871112770285
0	87945	43938.772222473934	1.1792331119941
0	87947	43940.143135694211	1.3709132202712
0	87949	43941.081628882187	0.93849318797584
0	87951	43942.336639199851	1.2550103176691
0	87953	43943.295048180928	0.95840898107417
0	87955	43945.274793135885	1.979744954966
0	87957	43946.848251091069	1.573457955179
0	87959	43947.956103870914	1.1078527798454
0	87961	43949.637774720909	1.6816708499973
0	87964	43951.479750580202	1.8419758592863
0	87965	43951.568017713814	0.088267133614863
0	87967	43953.07373233591	1.5057146221006
0	87969	43953.619385903814	0.54565356790408
0	87971	43954.418901658171	0.79951575434825
0	87973	43955.880185132149	1.4612834739819
0	87975	43957.671532287399	1.7913471552529
0	87977	43958.843170579274	1.1716382918676
0	87979	43960.567942117895	1.7247715386256
0	87981	43960.803191723966	0.23524960607028
0	87983	43962.643320954063	1.8401292300987
0	87985	43963.695291194282	1.0519702402162
0	87987	43964.159118547469	0.46382735318912
0	87989	43965.705443558437	1.5463250109678
0	87991	43966.78990289076	1.08445933232
0	87993	43967.297901242004	0.50799835124053
0	87995	43969.2261906042	1.9282893622003
0	87997	43969.985501032607	0.75931042840966
0	87999	43971.715871264386	1.7303702317731
0	88002	43972.048356766195	0.33248550181452
0	88003	43972.132185674625	0.083828908427677
0	88005	43973.044649663227	0.91246398859948
0	88007	43974.826906103385	1.7822564401649
0	88009	43975.210895840933	0.38398973755102
0	88011	43976.92641480898	1.7155189680416
0	88013	43977.653710780794	0.72729597181024
0	88015	43979.317109062308	1.663398281511
0	88017	43980.052026474231	0.73491741192993
0	88019	43981.808968662485	1.7569421882581
0	88021	43982.736326648555	0.92735798606009
0	88024	43982.841998525646	0.10567187709967
0	88025	43982.869236788476	0.027238262831816
0	88027	43984.662720171402	1.7934833829204
0	88029	43985.737937010061	1.0752168386607
0	88031	43986.907344357823	1.1694073477629
0	88033	43987.136638189554	0.22929383172595
0	88035	43988.878068090184	1.7414299006341
0	88037	43989.090407980472	0.21233989028406
0	88039	43989.886944056726	0.79653607626096
0	88041	43991.268777649799	1.38183359307
0	88043	43991.745976431467	0.4771987816639
0	88045	43992.025899922777	0.27992349131091
0	88047	43992.700018374865	0.67411845208699
0	88049	43994.608842618405	1.9088242435464
0	88051	43996.2179038007	1.6090611822947
0	88053	43997.709194624951	1.4912908242477
0	88055	43997.83407781015	0.124883185199
0	88057	43998.745771448765	0.91169363861991
0	88059	43999.580755653886	0.83498420511751
0	88061	44001.160291117515	1.5795354636284
0	88063	44002.412828331364	1.252537213848
0	88065	44003.805781494094	1.3929531627364
0	88067	44005.169587500296	1.363806006193
0	88069	44006.657133743762	1.4875462434647
0	88071	44007.846847680615	1.1897139368593
0	88073	44009.368984370488	1.5221366898695
0	88075	44009.920331058345	0.55134668785468
0	88077	44010.404113866867	0.48378280852194
0	88079	44011.341776690429	0.93766282356955
0	88081	44012.640852302901	1.2990756124709
0	88083	44014.204671118793	1.5638188158919
0	88085	44015.307509823669	1.1028387048791
0	88087	44016.717622675625	1.4101128519469
0	88089	44018.484325499789	1.7667028241704
0	88091	44019.458691217043	0.9743657172512
0	88093	44019.623301101963	0.16460988491599
0	88095	44020.221636950432	0.59833584847365
0	88097	44020.452242160717	0.23060521028674
0	88099	44022.234011420448	1.7817692597309
0	88101	44022.429959722354	0.19594830190181
0	88103	44023.733069852161	1.3031101298111
0	88105	44025.105021513873	1.3719516617057
0	88107	44025.496599899662	0.39157838579558
0	88110	44026.7545298512	1.2579299515346
0	88111	44026.783225355394	0.028695504195639
0	88113	44027.068564351505	0.2853389961092
0	88115	44028.761071990889	1.6925076393818
0	88117	44030.736967120022	1.9758951291369
0	88119	44031.606402457799	0.86943533777958
0	88121	44032.206124475612	0.59972201781784
0	88123	44033.734077864493	1.5279533888752
0	88125	44034.046684786058	0.31260692155774
0	88128	44036.031215530194	1.9845307441428
0	88130	44036.039432217676	0.0082166874854011
0	88131	44036.137298726831	0.097866509153391
0	88133	44036.979718100095	0.84241937326442
0	88135	44037.522124544785	0.54240644468518
0	88137	44037.747240455994	0.22511591120565
0	88139	44039.270360139149	1.5231196831592
0	88141	44040.342874931621	1.072514792475
0	88143	44042.09899201464	1.7561170830159
0	88145	44043.158806309934	1.0598142952949
0	88147	44043.45766731076	0.29886100082513
0	88149	44044.414508194215	0.95684088345297
0	88151	44046.039236417349	1.6247282231416
0	88153	44046.846482633366	0.80724621601257
0	88155	44048.233635237839	1.387152604475
0	88157	44050.107458621603	1.8738233837576
0	88159	44051.457069547884	1.3496109262924
0	88161	44052.367907545059	0.9108379971658
0	88164	44052.822126068847	0.45421852378786
0	88165	44052.872855379942	0.05072931110044
0	88167	44053.480386952917	0.60753157297586
0	88169	44054.263533943745	0.78314699081966
0	88171	44054.615008786897	0.3514748431553
0	88173	44055.852697636222	1.2376888493309
0	88175	44057.689188243966	1.8364906077404
0	88177	44059.586832602605	1.8976443586434
0	88179	44061.295568255669	1.708735653061
0	88181	44062.015689296013	0.72012104034366
0	88183	44063.090014362573	1.0743250665619
0	88185	44063.271408038164	0.18139367557887
0	88187	44063.954913689092	0.68350565092987
0	88189	44065.63438883622	1.6794751471389
0	88191	44066.573186614176	0.93879777794791
0	88194	44066.947440717169	0.37425410299329
0	88195	44067.036149719571	0.088709002404357
0	88197	44067.968353090152	0.93220337058301
0	88199	44069.510402437362	1.5420493472047
0	88201	44070.733780991918	1.2233785545614
0	88203	44072.057147418466	1.3233664265426
0	88205	44073.876678405563	1.8195309871007
0	88207	44074.733978540338	0.85730013477587
0	88209	44075.377343702131	0.64336516179173
0	88211	44076.415617957264	1.0382742551301
0	88213	44076.691023983674	0.27540602641238
0	88215	44077.440109850869	0.74908586719539
0	88217	44079.326279796637	1.8861699457702
0	88219	44080.184558322099	0.85827852545481
0	88221	44081.271735754747	1.0871774326515
0	88223	44081.462846277322	0.19111052257358
0	88225	44083.457399199755	1.9945529224351
0	88227	44083.908366523931	0.45096732417733
0	88229	44085.316183955381	1.4078174314491
0	88231	44086.503754332256	1.1875703768746
0	88233	44087.999078464985	1.4953241327312
0	88235	44089.911777241406	1.9126987764248
0	88237	44090.640112541274	0.72833529986383
0	88239	44091.771497427671	1.1313848863938
0	88241	44092.957283098057	1.1857856703864
0	88243	44094.457045268772	1.4997621707153
0	88245	44094.959848478244	0.50280320947058
0	88247	44095.573390072305	0.61354159406619
0	88249	44097.366961453107	1.7935713807965
0	88251	44097.921158596197	0.55419714309392
0	88253	44098.312542510656	0.39138391445886
0	88255	44100.301992826596	1.9894503159376
0	88257	44100.993452829132	0.69146000254113
0	88259	44102.361715446687	1.3682626175505
0	88261	44102.751528687486	0.38981324079941
0	88263	44104.34266679686	1.5911381093756
0	88265	44104.600871052233	0.25820425536949
0	88267	44106.239791111492	1.6389200592603
0	88269	44107.569227085539	1.3294359740466
0	88271	44109.399642897781	1.8304158122482
0	88273	44111.198199249721	1.7985563519323
0	88275	44111.534806312136	0.3366070624179
0	88277	44112.889704313834	1.3548980016931
0	88279	44114.660418856556	1.7707145427339
0	88281	44115.059738380687	0.39931952412735
0	88284	44116.4229804571	1.3632420764116
0	88285	44116.432558736324	0.0095782792195678
0	88287	44117.414697654563	0.9821389182398
0	88289	44118.223496493346	0.80879883878515
0	88291	44119.705579926413	1.4820834330676
0	88293	44121.081839475643	1.3762595492299
0	88295	44121.876083391951	0.79424391630891
0	88298	44122.73358477529	0.85750138333242
0	88299	44122.759334550883	0.025749775595614
0	88301	44123.535812943317	0.7764783924431
0	88303	44123.808154574797	0.27234163147659
0	88305	44125.053954854458	1.2458002796557
0	88307	44125.219255116696	0.16530026224063
0	88309	44125.420762543588	0.20150742688566
0	88311	44126.156086320421	0.73532377684023
0	88313	44126.742803559344	0.58671723891894
0	88315	44127.699438137153	0.95663457780756
0	88317	44127.85678737633	0.15734923917626
0	88319	44128.425450220262	0.56866284393618
0	88321	44129.941868181604	1.5164179613421
0	88323	44130.378544464243	0.43667628263938
0	88325	44131.596826777896	1.2182823136536
0	88327	44133.267672350579	1.6708455726766
0	88329	44135.169212440863	1.9015400902936
0	88331	44136.353509845666	1.1842974047977
0	88333	44136.839992377656	0.48648253198917
0	88335	44137.151907536095	0.31191515843966
0	88338	44137.509975426891	0.35806789079652
0	88339	44137.557016033762	0.047040606870723
0	88341	44138.168495711307	0.61147967754368
0	88343	44139.307436204482	1.1389404931761
0	88345	44139.480305001187	0.17286879670428
0	88347	44140.886171217778	1.4058662165917
0	88349	44141.279673471069	0.3935022532969
0	88351	44142.872044532323	1.5923710612478
0	88354	44143.852471036125	0.98042650381103
0	88355	44143.880720434943	0.028249398812477
0	88357	44144.668366375047	0.78764594010136
0	88359	44146.633681708598	1.965315333553
0	88361	44147.688492707119	1.0548109985248
0	88363	44147.896944852785	0.20845214566361
0	88365	44149.352157062836	1.4552122100431
0	88367	44151.103771395851	1.7516143330213
0	88369	44152.485866374849	1.3820949789952
0	88371	44153.356178401956	0.87031202710205
0	88373	44154.690417991628	1.3342395896834
0	88375	44155.255201604157	0.56478361252812
0	88377	44155.573377382098	0.31817577793845
0	88380	44157.153677238044	1.580299855952
0	88381	44157.253356118625	0.099678880571446
0	88383	44158.556302051605	1.3029459329846
0	88385	44159.16859764875	0.61229559714411
0	88387	44160.02069887269	0.85210122393619
0	88389	44161.285969633562	1.2652707608722
0	88391	44162.691647610303	1.4056779767416
0	88393	44163.921402701425	1.2297550911244
0	88395	44164.415219192871	0.49381649144925
0	88397	44165.988990932051	1.5737717391748
0	88399	44166.370611331883	0.38162039982853
0	88401	44168.264671301877	1.8940599699999
0	88403	44169.73058699553	1.4659156936468
0	88405	44171.375650217751	1.6450632222259
0	88407	44171.953226080428	0.57757586268417
0	88409	44173.2707500867	1.3175240062701
0	88411	44174.896723507675	1.6259734209671
0	88413	44176.632009830905	1.73528632323
0	88415	44177.589244363923	0.95723453301616
0	88417	44177.830040798728	0.24079643480945
0	88419	44178.895720569187	1.0656797704578
0	88421	44179.775622678169	0.87990210897988
0	88423	44180.290368341329	0.51474566316028
0	88425	44181.620729069333	1.3303607280104
0	88427	44182.993484635653	1.3727555663208
0	88429	44184.896287772575	1.9028031369162
0	88431	44185.308610018305	0.41232224573469
0	88433	44187.208594006402	1.8999839880926
0	88435	44188.239481951506	1.030887945104
0	88437	44188.373175312292	0.13369336078176
0	88439	44189.357490039416	0.98431472713128
0	88441	44190.735108812035	1.377618772618
0	88443	44192.373820223373	1.6387114113386
0	88445	44194.196510576088	1.8226903527175
0	88447	44196.153268656118	1.9567580800285
0	88449	44197.38631972391	1.233051067793
0	88451	44199.275616110249	1.8892963863327
0	88453	44200.679981316109	1.4043652058681
0	88455	44201.845996204044	1.1660148879382
0	88457	44203.058217735806	1.2122215317577
0	88459	44204.865502058284	1.80728432248
0	88461	44205.893109938364	1.0276078800816
0	88463	44206.898750441851	1.0056405034775
0	88465	44208.698692554286	1.7999421124405
0	88467	44210.325776243087	1.6270836887998
0	88469	44210.721333916919	0.3955576738299
0	88471	44210.859158014631	0.13782409771375
0	88473	44211.268768267649	0.40961025301658
0	88475	44211.588290743622	0.31952247597656
0	88477	44211.802544414258	0.21425367063057
0	88479	44212.76398678933	0.96144237507542
0	88481	44213.725984624744	0.96199783540942
0	88484	44214.023604420309	0.29761979557225
0	88485	44214.119508486581	0.095904066271032
0	88487	44215.979150320678	1.8596418340967
0	88489	44216.979455985869	1.0003056651913
0	88491	44217.116770857818	0.13731487194309
0	88493	44218.967823701714	1.8510528439001
0	88495	44219.61297106567	0.64514736395358
0	88497	44220.60471706894	0.99174600327387
0	88499	44220.87979402835	0.27507695940585
0	88501	44222.098250836464	1.2184568081138
0	88503	44222.701824803516	0.60357396705513
0	88505	44222.969489053627	0.2676642501101
0	88507	44223.602540670061	0.63305161643802
0	88509	44225.301058084662	1.6985174145957
0	88511	44226.2832452808	0.98218719613942
0	88513	44227.903450778924	1.6202054981259
0	88515	44228.697257742894	0.79380696397129
0	88517	44230.210901184389	1.5136434414962
0	88520	44232.016222396225	1.8053212118321
0	88521	44232.04982972362	0.033607327386562
0	88523	44232.888181250308	0.83835152669053
0	88525	44233.062290295805	0.17410904550343
0	88527	44233.31301796712	0.25072767131496
0	88529	44235.292989763385	1.9799717962596
0	88531	44236.678969586867	1.3859798234844
0	88533	44236.841862852429	0.1628932655658
0	88535	44238.58897714652	1.7471142940922
0	88537	44240.338917931052	1.7499407845316
0	88539	44241.593683553954	1.2547656228999
0	88541	44242.439507669326	0.84582411537122
0	88543	44244.205414729572	1.7659070602385
0	88545	44245.805376283086	1.5999615535256
0	88547	44246.359206192646	0.55382990955695
0	88549	44246.578496170783	0.21928997813666
0	88551	44248.185158717816	1.6066625470339
0	88553	44249.362586695688	1.1774279778692
0	88555	44250.394610787278	1.0320240915898
0	88557	44251.623518143889	1.2289073566135
0	88559	44251.869460704028	0.24594256014097
0	88561	44253.426068961637	1.5566082576115
0	88563	44255.341054592259	1.9149856306103
0	88565	44256.50454845052	1.1634938582647
0	88567	44257.345824239755	0.84127578923653
0	88570	44258.668013918809	1.3221896790565
0	88571	44258.709949774351	0.041935855537304
0	88573	44259.525873873446	0.81592409910081
0	88575	44260.762207365302	1.2363334918555
0	88577	44261.819204995608	1.0569976303013
0	88579	44262.778377549437	0.95917255383392
0	88581	44263.591489761229	0.81311221179203
0	88583	44265.568433354691	1.9769435934577
0	88585	44266.05940866222	0.49097530753352
0	88587	44267.881402307418	1.8219936451933
0	88589	44268.128597145312	0.24719483789522
0	88591	44268.732237628354	0.60364048303745
0	88593	44270.11783611622	1.3855984878755
0	88595	44271.871621678807	1.7537855625851
0	88597	44273.745572076344	1.8739503975376
0	88599	44275.229903481825	1.4843314054742
0	88601	44276.387835409024	1.1579319272059
0	88603	44277.749735850075	1.361900441043
0	88605	44279.210448601198	1.4607127511263
0	88608	44279.40965671745	0.19920811625343
0	88609	44279.500466558201	0.090809840752627
0	88611	44279.741460064588	0.24099350639153
0	88613	44280.11932191659	0.37786185200093
0	88615	44280.843468518671	0.72414660207869
0	88617	44281.575409697453	0.73194117878302
0	88619	44283.310801484583	1.7353917871296
0	88621	44284.040567780214	0.72976629562618
0	88624	44285.222698455596	1.1821306753845
0	88625	44285.292959601571	0.070261145971017
0	88627	44286.172039997195	0.87908039562171
0	88629	44286.876249243264	0.70420924607606
0	88631	44288.521047929826	1.6447986865605
0	88633	44288.652572985393	0.13152505556354
0	88635	44289.194181892928	0.54160890753701
0	88637	44290.015090826257	0.82090893333225
0	88639	44291.031533284876	1.0164424586183
0	88641	44292.37993528833	1.3484020034521
0	88643	44292.972407343601	0.59247205527208
0	88645	44294.650240291495	1.6778329478911
0	88647	44295.988595544637	1.338355253145
0	88649	44297.725335110133	1.7367395654946
0	88651	44299.107212397136	1.381877287
0	88653	44300.318775059154	1.2115626620216
0	88655	44301.052435600039	0.73366054088547
0	88657	44301.685146256485	0.63271065644949
0	88659	44303.653149141119	1.9680028846342
0	88661	44303.877631182076	0.22448204095417
0	88663	44304.7472935437	0.8696623616197
0	88665	44305.162605366561	0.41531182286417
0	88667	44305.30841219328	0.14580682671658
0	88669	44305.883748859394	0.57533666611562
0	88672	44307.567096242761	1.6833473833685
0	88673	44307.586568485103	0.019472242340271
0	88675	44308.856545528146	1.2699770430409
0	88677	44309.360707949831	0.50416242169013
0	88679	44310.81852920606	1.4578212562337
0	88681	44312.420382640802	1.6018534347313
0	88683	44312.771060355648	0.35067771485046
0	88685	44314.611413779303	1.8403534236568
0	88687	44315.431405152211	0.81999137290404
0	88689	44317.026409609071	1.5950044568599
0	88691	44318.266316063176	1.2399064541096
0	88693	44319.374090204005	1.1077741408299
0	88695	44319.734075118945	0.35998491493228
0	88697	44320.000540512895	0.26646539395733
0	88699	44320.484416638076	0.48387612518127
0	88701	44320.99045255575	0.5060359176714
0	88703	44321.936120906164	0.94566835041041
0	88705	44323.784086317935	1.8479654117764
0	88707	44324.538761954354	0.75467563641723
0	88709	44326.372183255373	1.8334213010239
0	88711	44326.68398948353	0.31180622815009
0	88713	44327.211266118946	0.52727663541737
0	88715	44329.14967754751	1.938411428564
0	88717	44330.030557429712	0.88087988219922
0	88720	44330.978737598089	0.94818016837962
0	88721	44331.042827515697	0.064089917606907
0	88723	44332.202072747426	1.1592452317273
0	88725	44333.636682410835	1.4346096634108
0	88727	44335.12129533371	1.4846129228754
0	88729	44337.010690102172	1.8893947684628
0	88731	44338.068563646948	1.0578735447707
0	88733	44339.749230694188	1.6806670472506
0	88735	44340.7202936594	0.9710629652036
0	88737	44341.375549976702	0.65525631730998
0	88739	44342.268474875422	0.89292489871877
0	88741	44343.65724765987	1.3887727844485
0	88744	44344.761435871646	1.1041882117715
0	88746	44344.852711197665	0.091275326019968
0	88747	44344.917115595898	0.064404398232
0	88749	44345.361836696026	0.4447211001243
0	88751	44345.789366541612	0.42752984559047
0	88753	44347.283481302617	1.4941147610007
0	88755	44348.870269517168	1.586788214554
0	88758	44350.01979147113	1.1495219539574
0	88759	44350.035271703562	0.01548023243231
0	88761	44350.211538192263	0.17626648870646
0	88763	44350.722413793822	0.51087560156157
0	88765	44351.008649201881	0.28623540805711
0	88767	44351.767152456737	0.75850325485226
0	88769	44351.931356825181	0.16420436844783
0	88771	44353.714177267771	1.7828204425823
0	88773	44355.577355883166	1.8631786154001
0	88775	44356.020344820162	0.44298893699306
0	88777	44357.335408905491	1.3150640853273
0	88779	44357.617491021854	0.28208211636957
0	88782	44358.571620729367	0.95412970751204
0	88783	44358.629614892058	0.057994162685645
0	88785	44359.337507236721	0.70789234466793
0	88787	44360.884143985569	1.546636748848
0	88789	44361.207981871353	0.32383788578591
0	88791	44361.951328241524	0.74334637016727
0	88793	44363.373771713104	1.4224434715798
0	88795	44364.381198558483	1.0074268453754
0	88797	44366.204188841771	1.82299028329
0	88799	44367.20188005632	0.99769121455029
0	88801	44367.398122984916	0.19624292859226
0	88803	44367.653023903377	0.25490091846586
0	88805	44367.772760475229	0.11973657185445
0	88807	44368.185323591711	0.41256311647885
0	88809	44370.133622301154	1.9482987094452
0	88811	44371.190031909287	1.0564096081362
0	88813	44372.26631580613	1.0762838968367
0	88815	44373.369770048173	1.1034542420457
0	88817	44375.125216063916	1.755446015748
0	88819	44376.906402661236	1.7811865973126
0	88821	44377.309543816331	0.40314115509682
0	88823	44378.902937504232	1.593393687901
0	88825	44379.070650053058	0.16771254882769
0	88827	44379.815458167539	0.74480811447575
0	88829	44381.805438243043	1.9899800755084
0	88831	44383.400567233564	1.5951289905279
0	88833	44384.733510924194	1.3329436906206
0	88835	44385.518119344544	0.78460842035565
0	88837	44386.431840166	0.91372082145244
0	88839	44387.337686375687	0.9058462096873
0	88841	44387.894932586931	0.55724621123954
0	88843	44389.532004971119	1.6370723841974
0	88845	44389.807566026416	0.2755610552922
0	88847	44391.162222400197	1.3546563737837
0	88849	44392.871896545157	1.7096741449641

